farnesyl_sat.pdb_1
 OpenBabel07241819373D
VDW energy = 43.28
 47 46  0  0  0  0  0  0  0  0999 V2000
   -1.7100    9.4390    1.0900 C   0  0  0  0  0  0  0  0  0  0  0  0
   -1.6880    8.7310   -1.4210 C   0  0  0  0  0  0  0  0  0  0  0  0
   -1.5890    8.3130    0.0530 C   0  0  0  0  0  0  0  0  0  0  0  0
   -2.7120    7.2970    0.3300 C   0  0  0  0  0  0  0  0  0  0  0  0
   -2.2230    5.8800   -0.0250 C   0  0  0  0  0  0  0  0  0  0  0  0
   -3.3470    4.8650    0.2520 C   0  0  0  0  0  0  0  0  0  0  0  0
   -2.7420    3.5790    0.8460 C   0  0  0  0  0  0  0  0  0  0  0  0
   -3.8640    2.5620    1.1250 C   0  0  0  0  0  0  0  0  0  0  0  0
   -2.0140    3.9140    2.1620 C   0  0  0  0  0  0  0  0  0  0  0  0
   -1.3430    2.6440    2.7160 C   0  0  0  0  0  0  0  0  0  0  0  0
   -0.4500    3.0140    3.9160 C   0  0  0  0  0  0  0  0  0  0  0  0
    0.2620    1.7530    4.4360 C   0  0  0  0  0  0  0  0  0  0  0  0
    1.4740    2.1630    5.2930 C   0  0  0  0  0  0  0  0  0  0  0  0
   -0.7160    0.9270    5.2930 C   0  0  0  0  0  0  0  0  0  0  0  0
    2.1870    0.9010    5.8130 C   0  0  0  0  0  0  0  0  0  0  0  0
   -2.9860    7.3340    1.3840 H   0  0  0  0  0  0  0  0  0  0  0  0
   -0.5820    7.9150    0.1740 H   0  0  0  0  0  0  0  0  0  0  0  0
   -4.0580    5.2920    0.9590 H   0  0  0  0  0  0  0  0  0  0  0  0
   -3.5830    7.5430   -0.2790 H   0  0  0  0  0  0  0  0  0  0  0  0
   -1.3510    5.6340    0.5800 H   0  0  0  0  0  0  0  0  0  0  0  0
   -1.9540    5.8440   -1.0810 H   0  0  0  0  0  0  0  0  0  0  0  0
   -4.8190    2.9770    0.8010 H   0  0  0  0  0  0  0  0  0  0  0  0
   -3.8590    4.6270   -0.6790 H   0  0  0  0  0  0  0  0  0  0  0  0
   -1.2550    4.6740    1.9760 H   0  0  0  0  0  0  0  0  0  0  0  0
   -2.0320    3.1510    0.1390 H   0  0  0  0  0  0  0  0  0  0  0  0
   -3.9040    2.3470    2.1930 H   0  0  0  0  0  0  0  0  0  0  0  0
   -3.6630    1.6410    0.5760 H   0  0  0  0  0  0  0  0  0  0  0  0
   -2.1090    1.9390    3.0390 H   0  0  0  0  0  0  0  0  0  0  0  0
   -2.7340    4.2900    2.8890 H   0  0  0  0  0  0  0  0  0  0  0  0
    0.2920    3.7480    3.6020 H   0  0  0  0  0  0  0  0  0  0  0  0
   -0.7330    2.1850    1.9380 H   0  0  0  0  0  0  0  0  0  0  0  0
   -1.7040    1.3850    5.2600 H   0  0  0  0  0  0  0  0  0  0  0  0
   -1.0660    3.4380    4.7090 H   0  0  0  0  0  0  0  0  0  0  0  0
    2.1670    2.7480    4.6860 H   0  0  0  0  0  0  0  0  0  0  0  0
    0.6010    1.1520    3.5920 H   0  0  0  0  0  0  0  0  0  0  0  0
    1.4960    0.3200    6.4250 H   0  0  0  0  0  0  0  0  0  0  0  0
    1.1360    2.7630    6.1370 H   0  0  0  0  0  0  0  0  0  0  0  0
   -0.3620    0.8980    6.3230 H   0  0  0  0  0  0  0  0  0  0  0  0
   -0.7730   -0.0890    4.9000 H   0  0  0  0  0  0  0  0  0  0  0  0
    3.0480    1.1920    6.4150 H   0  0  0  0  0  0  0  0  0  0  0  0
    2.5190    0.2980    4.9700 H   0  0  0  0  0  0  0  0  0  0  0  0
   -2.3410   10.2460    0.7170 H   0  0  0  0  0  0  0  0  0  0  0  0
   -2.1860    9.0690    2.0130 H   0  0  0  0  0  0  0  0  0  0  0  0
   -0.7190    9.8570    1.3180 H   0  0  0  0  0  0  0  0  0  0  0  0
   -2.3460    8.0200   -1.9300 H   0  0  0  0  0  0  0  0  0  0  0  0
   -2.0940    9.7190   -1.5390 H   0  0  0  0  0  0  0  0  0  0  0  0
   -0.7040    8.6980   -1.8730 H   0  0  0  0  0  0  0  0  0  0  0  0
  1 42  1  0  0  0  0
  1 43  1  0  0  0  0
  1 44  1  0  0  0  0
  1  3  1  0  0  0  0
  2 45  1  0  0  0  0
  2 46  1  0  0  0  0
  2 47  1  0  0  0  0
  2  3  1  0  0  0  0
  3  4  1  0  0  0  0
  3 17  1  0  0  0  0
  4  5  1  0  0  0  0
  4 16  1  0  0  0  0
  4 19  1  0  0  0  0
  5  6  1  0  0  0  0
  5 20  1  0  0  0  0
  5 21  1  0  0  0  0
  6  7  1  0  0  0  0
  6 18  1  0  0  0  0
  6 23  1  0  0  0  0
  7  8  1  0  0  0  0
  7  9  1  0  0  0  0
  7 25  1  0  0  0  0
  8 22  1  0  0  0  0
  8 26  1  0  0  0  0
  8 27  1  0  0  0  0
  9 10  1  0  0  0  0
  9 24  1  0  0  0  0
  9 29  1  0  0  0  0
 10 11  1  0  0  0  0
 10 28  1  0  0  0  0
 10 31  1  0  0  0  0
 11 12  1  0  0  0  0
 11 30  1  0  0  0  0
 11 33  1  0  0  0  0
 12 13  1  0  0  0  0
 12 14  1  0  0  0  0
 12 35  1  0  0  0  0
 13 15  1  0  0  0  0
 13 34  1  0  0  0  0
 13 37  1  0  0  0  0
 14 32  1  0  0  0  0
 14 38  1  0  0  0  0
 14 39  1  0  0  0  0
 15 36  1  0  0  0  0
 15 40  1  0  0  0  0
 15 41  1  0  0  0  0
M  END
$$$$
farnesyl_sat.pdb_2
 OpenBabel07241819373D
VDW energy = 52.07
 47 46  0  0  0  0  0  0  0  0999 V2000
   -1.7100    9.4390    1.0900 C   0  0  0  0  0  0  0  0  0  0  0  0
   -1.6880    8.7310   -1.4210 C   0  0  0  0  0  0  0  0  0  0  0  0
   -1.5890    8.3130    0.0530 C   0  0  0  0  0  0  0  0  0  0  0  0
   -2.7120    7.2970    0.3300 C   0  0  0  0  0  0  0  0  0  0  0  0
   -2.2234    5.8804   -0.0250 C   0  0  0  0  0  0  0  0  0  0  0  0
   -2.2112    5.7092   -1.5551 C   0  0  0  0  0  0  0  0  0  0  0  0
   -2.6879    4.2900   -1.9166 C   0  0  0  0  0  0  0  0  0  0  0  0
   -2.6764    4.1168   -3.4468 C   0  0  0  0  0  0  0  0  0  0  0  0
   -4.1181    4.0773   -1.3855 C   0  0  0  0  0  0  0  0  0  0  0  0
   -4.5660    2.6334   -1.6789 C   0  0  0  0  0  0  0  0  0  0  0  0
   -5.9076    2.3572   -0.9741 C   0  0  0  0  0  0  0  0  0  0  0  0
   -6.3286    0.8980   -1.2232 C   0  0  0  0  0  0  0  0  0  0  0  0
   -7.3791    0.4802   -0.1777 C   0  0  0  0  0  0  0  0  0  0  0  0
   -6.9310    0.7701   -2.6356 C   0  0  0  0  0  0  0  0  0  0  0  0
   -7.7700   -0.9924   -0.4013 C   0  0  0  0  0  0  0  0  0  0  0  0
   -2.9855    7.3343    1.3844 H   0  0  0  0  0  0  0  0  0  0  0  0
   -0.5820    7.9150    0.1740 H   0  0  0  0  0  0  0  0  0  0  0  0
   -2.8770    6.4425   -2.0092 H   0  0  0  0  0  0  0  0  0  0  0  0
   -3.5829    7.5433   -0.2787 H   0  0  0  0  0  0  0  0  0  0  0  0
   -2.8918    5.1426    0.4194 H   0  0  0  0  0  0  0  0  0  0  0  0
   -1.2151    5.7367    0.3641 H   0  0  0  0  0  0  0  0  0  0  0  0
   -2.2983    5.0277   -3.9126 H   0  0  0  0  0  0  0  0  0  0  0  0
   -1.1987    5.8576   -1.9291 H   0  0  0  0  0  0  0  0  0  0  0  0
   -4.1379    4.2525   -0.3104 H   0  0  0  0  0  0  0  0  0  0  0  0
   -2.0211    3.5567   -1.4639 H   0  0  0  0  0  0  0  0  0  0  0  0
   -3.6899    3.9224   -3.7985 H   0  0  0  0  0  0  0  0  0  0  0  0
   -2.0324    3.2784   -3.7125 H   0  0  0  0  0  0  0  0  0  0  0  0
   -4.6867    2.5010   -2.7543 H   0  0  0  0  0  0  0  0  0  0  0  0
   -4.7953    4.7740   -1.8797 H   0  0  0  0  0  0  0  0  0  0  0  0
   -5.7968    2.5266    0.0967 H   0  0  0  0  0  0  0  0  0  0  0  0
   -3.8128    1.9373   -1.3104 H   0  0  0  0  0  0  0  0  0  0  0  0
   -6.8403    1.7228   -3.1565 H   0  0  0  0  0  0  0  0  0  0  0  0
   -6.6703    3.0281   -1.3704 H   0  0  0  0  0  0  0  0  0  0  0  0
   -6.9630    0.5984    0.8231 H   0  0  0  0  0  0  0  0  0  0  0  0
   -5.4567    0.2488   -1.1410 H   0  0  0  0  0  0  0  0  0  0  0  0
   -8.1927   -1.1086   -1.3997 H   0  0  0  0  0  0  0  0  0  0  0  0
   -8.2628    1.1100   -0.2796 H   0  0  0  0  0  0  0  0  0  0  0  0
   -7.9824    0.4952   -2.5590 H   0  0  0  0  0  0  0  0  0  0  0  0
   -6.3934    0.0000   -3.1900 H   0  0  0  0  0  0  0  0  0  0  0  0
   -8.5092   -1.2893    0.3427 H   0  0  0  0  0  0  0  0  0  0  0  0
   -6.8856   -1.6212   -0.3061 H   0  0  0  0  0  0  0  0  0  0  0  0
   -2.3410   10.2460    0.7170 H   0  0  0  0  0  0  0  0  0  0  0  0
   -2.1860    9.0690    2.0130 H   0  0  0  0  0  0  0  0  0  0  0  0
   -0.7190    9.8570    1.3180 H   0  0  0  0  0  0  0  0  0  0  0  0
   -2.3460    8.0200   -1.9300 H   0  0  0  0  0  0  0  0  0  0  0  0
   -2.0940    9.7190   -1.5390 H   0  0  0  0  0  0  0  0  0  0  0  0
   -0.7040    8.6980   -1.8730 H   0  0  0  0  0  0  0  0  0  0  0  0
  1 42  1  0  0  0  0
  1 43  1  0  0  0  0
  1 44  1  0  0  0  0
  1  3  1  0  0  0  0
  2 45  1  0  0  0  0
  2 46  1  0  0  0  0
  2 47  1  0  0  0  0
  2  3  1  0  0  0  0
  3  4  1  0  0  0  0
  3 17  1  0  0  0  0
  4  5  1  0  0  0  0
  4 16  1  0  0  0  0
  4 19  1  0  0  0  0
  5  6  1  0  0  0  0
  5 20  1  0  0  0  0
  5 21  1  0  0  0  0
  6  7  1  0  0  0  0
  6 18  1  0  0  0  0
  6 23  1  0  0  0  0
  7  8  1  0  0  0  0
  7  9  1  0  0  0  0
  7 25  1  0  0  0  0
  8 22  1  0  0  0  0
  8 26  1  0  0  0  0
  8 27  1  0  0  0  0
  9 10  1  0  0  0  0
  9 24  1  0  0  0  0
  9 29  1  0  0  0  0
 10 11  1  0  0  0  0
 10 28  1  0  0  0  0
 10 31  1  0  0  0  0
 11 12  1  0  0  0  0
 11 30  1  0  0  0  0
 11 33  1  0  0  0  0
 12 13  1  0  0  0  0
 12 14  1  0  0  0  0
 12 35  1  0  0  0  0
 13 15  1  0  0  0  0
 13 34  1  0  0  0  0
 13 37  1  0  0  0  0
 14 32  1  0  0  0  0
 14 38  1  0  0  0  0
 14 39  1  0  0  0  0
 15 36  1  0  0  0  0
 15 40  1  0  0  0  0
 15 41  1  0  0  0  0
M  END
$$$$
farnesyl_sat.pdb_3
 OpenBabel07241819373D
VDW energy = 53.31
 47 46  0  0  0  0  0  0  0  0999 V2000
   -1.7100    9.4390    1.0900 C   0  0  0  0  0  0  0  0  0  0  0  0
   -1.6880    8.7310   -1.4210 C   0  0  0  0  0  0  0  0  0  0  0  0
   -1.5890    8.3130    0.0530 C   0  0  0  0  0  0  0  0  0  0  0  0
   -2.7120    7.2970    0.3300 C   0  0  0  0  0  0  0  0  0  0  0  0
   -2.2234    5.8804   -0.0250 C   0  0  0  0  0  0  0  0  0  0  0  0
   -3.3469    4.8646    0.2523 C   0  0  0  0  0  0  0  0  0  0  0  0
   -2.7416    3.5792    0.8465 C   0  0  0  0  0  0  0  0  0  0  0  0
   -3.8638    2.5619    1.1245 C   0  0  0  0  0  0  0  0  0  0  0  0
   -2.0136    3.9143    2.1619 C   0  0  0  0  0  0  0  0  0  0  0  0
   -1.3428    2.6438    2.7164 C   0  0  0  0  0  0  0  0  0  0  0  0
   -0.4497    3.0145    3.9156 C   0  0  0  0  0  0  0  0  0  0  0  0
    0.2621    1.7531    4.4361 C   0  0  0  0  0  0  0  0  0  0  0  0
    1.4743    2.1631    5.2925 C   0  0  0  0  0  0  0  0  0  0  0  0
   -0.7161    0.9269    5.2932 C   0  0  0  0  0  0  0  0  0  0  0  0
    1.2771    3.6006    5.8083 C   0  0  0  0  0  0  0  0  0  0  0  0
   -2.9855    7.3343    1.3844 H   0  0  0  0  0  0  0  0  0  0  0  0
   -0.5820    7.9150    0.1740 H   0  0  0  0  0  0  0  0  0  0  0  0
   -4.0579    5.2915    0.9589 H   0  0  0  0  0  0  0  0  0  0  0  0
   -3.5829    7.5433   -0.2787 H   0  0  0  0  0  0  0  0  0  0  0  0
   -1.3510    5.6336    0.5804 H   0  0  0  0  0  0  0  0  0  0  0  0
   -1.9538    5.8440   -1.0807 H   0  0  0  0  0  0  0  0  0  0  0  0
   -4.8190    2.9773    0.8008 H   0  0  0  0  0  0  0  0  0  0  0  0
   -3.8595    4.6268   -0.6794 H   0  0  0  0  0  0  0  0  0  0  0  0
   -1.2550    4.6740    1.9759 H   0  0  0  0  0  0  0  0  0  0  0  0
   -2.0317    3.1514    0.1390 H   0  0  0  0  0  0  0  0  0  0  0  0
   -3.9040    2.3474    2.1926 H   0  0  0  0  0  0  0  0  0  0  0  0
   -3.6634    1.6413    0.5761 H   0  0  0  0  0  0  0  0  0  0  0  0
   -2.1092    1.9385    3.0387 H   0  0  0  0  0  0  0  0  0  0  0  0
   -2.7336    4.2903    2.8888 H   0  0  0  0  0  0  0  0  0  0  0  0
    0.2924    3.7484    3.6023 H   0  0  0  0  0  0  0  0  0  0  0  0
   -0.7330    2.1855    1.9381 H   0  0  0  0  0  0  0  0  0  0  0  0
   -1.7040    1.3854    5.2602 H   0  0  0  0  0  0  0  0  0  0  0  0
   -1.0658    3.4378    4.7094 H   0  0  0  0  0  0  0  0  0  0  0  0
    1.5683    1.4823    6.1390 H   0  0  0  0  0  0  0  0  0  0  0  0
    0.6007    1.1521    3.5920 H   0  0  0  0  0  0  0  0  0  0  0  0
    1.1903    4.2818    4.9613 H   0  0  0  0  0  0  0  0  0  0  0  0
    2.3791    2.1155    4.6868 H   0  0  0  0  0  0  0  0  0  0  0  0
   -0.3620    0.8979    6.3231 H   0  0  0  0  0  0  0  0  0  0  0  0
   -0.7733   -0.0886    4.8998 H   0  0  0  0  0  0  0  0  0  0  0  0
    2.1327    3.8882    6.4194 H   0  0  0  0  0  0  0  0  0  0  0  0
    0.3691    3.6496    6.4082 H   0  0  0  0  0  0  0  0  0  0  0  0
   -2.3410   10.2460    0.7170 H   0  0  0  0  0  0  0  0  0  0  0  0
   -2.1860    9.0690    2.0130 H   0  0  0  0  0  0  0  0  0  0  0  0
   -0.7190    9.8570    1.3180 H   0  0  0  0  0  0  0  0  0  0  0  0
   -2.3460    8.0200   -1.9300 H   0  0  0  0  0  0  0  0  0  0  0  0
   -2.0940    9.7190   -1.5390 H   0  0  0  0  0  0  0  0  0  0  0  0
   -0.7040    8.6980   -1.8730 H   0  0  0  0  0  0  0  0  0  0  0  0
  1 42  1  0  0  0  0
  1 43  1  0  0  0  0
  1 44  1  0  0  0  0
  1  3  1  0  0  0  0
  2 45  1  0  0  0  0
  2 46  1  0  0  0  0
  2 47  1  0  0  0  0
  2  3  1  0  0  0  0
  3  4  1  0  0  0  0
  3 17  1  0  0  0  0
  4  5  1  0  0  0  0
  4 16  1  0  0  0  0
  4 19  1  0  0  0  0
  5  6  1  0  0  0  0
  5 20  1  0  0  0  0
  5 21  1  0  0  0  0
  6  7  1  0  0  0  0
  6 18  1  0  0  0  0
  6 23  1  0  0  0  0
  7  8  1  0  0  0  0
  7  9  1  0  0  0  0
  7 25  1  0  0  0  0
  8 22  1  0  0  0  0
  8 26  1  0  0  0  0
  8 27  1  0  0  0  0
  9 10  1  0  0  0  0
  9 24  1  0  0  0  0
  9 29  1  0  0  0  0
 10 11  1  0  0  0  0
 10 28  1  0  0  0  0
 10 31  1  0  0  0  0
 11 12  1  0  0  0  0
 11 30  1  0  0  0  0
 11 33  1  0  0  0  0
 12 13  1  0  0  0  0
 12 14  1  0  0  0  0
 12 35  1  0  0  0  0
 13 15  1  0  0  0  0
 13 34  1  0  0  0  0
 13 37  1  0  0  0  0
 14 32  1  0  0  0  0
 14 38  1  0  0  0  0
 14 39  1  0  0  0  0
 15 36  1  0  0  0  0
 15 40  1  0  0  0  0
 15 41  1  0  0  0  0
M  END
$$$$
farnesyl_sat.pdb_4
 OpenBabel07241819373D
VDW energy = 53.77
 47 46  0  0  0  0  0  0  0  0999 V2000
   -1.7100    9.4390    1.0900 C   0  0  0  0  0  0  0  0  0  0  0  0
   -1.6880    8.7310   -1.4210 C   0  0  0  0  0  0  0  0  0  0  0  0
   -1.5890    8.3130    0.0530 C   0  0  0  0  0  0  0  0  0  0  0  0
   -2.7120    7.2970    0.3300 C   0  0  0  0  0  0  0  0  0  0  0  0
   -2.2234    5.8804   -0.0250 C   0  0  0  0  0  0  0  0  0  0  0  0
   -3.3469    4.8646    0.2523 C   0  0  0  0  0  0  0  0  0  0  0  0
   -2.7416    3.5792    0.8465 C   0  0  0  0  0  0  0  0  0  0  0  0
   -3.8638    2.5619    1.1245 C   0  0  0  0  0  0  0  0  0  0  0  0
   -2.0136    3.9143    2.1619 C   0  0  0  0  0  0  0  0  0  0  0  0
   -1.3428    2.6438    2.7164 C   0  0  0  0  0  0  0  0  0  0  0  0
   -0.4497    3.0145    3.9156 C   0  0  0  0  0  0  0  0  0  0  0  0
    0.2621    1.7531    4.4361 C   0  0  0  0  0  0  0  0  0  0  0  0
   -0.5249    0.5026    4.0024 C   0  0  0  0  0  0  0  0  0  0  0  0
    1.6875    1.6897    3.8547 C   0  0  0  0  0  0  0  0  0  0  0  0
    0.1871   -0.7596    4.5232 C   0  0  0  0  0  0  0  0  0  0  0  0
   -2.9855    7.3343    1.3844 H   0  0  0  0  0  0  0  0  0  0  0  0
   -0.5820    7.9150    0.1740 H   0  0  0  0  0  0  0  0  0  0  0  0
   -4.0579    5.2915    0.9589 H   0  0  0  0  0  0  0  0  0  0  0  0
   -3.5829    7.5433   -0.2787 H   0  0  0  0  0  0  0  0  0  0  0  0
   -1.3510    5.6336    0.5804 H   0  0  0  0  0  0  0  0  0  0  0  0
   -1.9538    5.8440   -1.0807 H   0  0  0  0  0  0  0  0  0  0  0  0
   -4.8190    2.9773    0.8008 H   0  0  0  0  0  0  0  0  0  0  0  0
   -3.8595    4.6268   -0.6794 H   0  0  0  0  0  0  0  0  0  0  0  0
   -1.2550    4.6740    1.9759 H   0  0  0  0  0  0  0  0  0  0  0  0
   -2.0317    3.1514    0.1390 H   0  0  0  0  0  0  0  0  0  0  0  0
   -3.9040    2.3474    2.1926 H   0  0  0  0  0  0  0  0  0  0  0  0
   -3.6634    1.6413    0.5761 H   0  0  0  0  0  0  0  0  0  0  0  0
   -2.1092    1.9385    3.0387 H   0  0  0  0  0  0  0  0  0  0  0  0
   -2.7336    4.2903    2.8888 H   0  0  0  0  0  0  0  0  0  0  0  0
    0.2924    3.7484    3.6023 H   0  0  0  0  0  0  0  0  0  0  0  0
   -0.7330    2.1855    1.9381 H   0  0  0  0  0  0  0  0  0  0  0  0
    1.8858    2.5941    3.2803 H   0  0  0  0  0  0  0  0  0  0  0  0
   -1.0658    3.4378    4.7094 H   0  0  0  0  0  0  0  0  0  0  0  0
   -1.5338    0.5473    4.4137 H   0  0  0  0  0  0  0  0  0  0  0  0
    0.3159    1.7887    5.5244 H   0  0  0  0  0  0  0  0  0  0  0  0
    1.1934   -0.8073    4.1059 H   0  0  0  0  0  0  0  0  0  0  0  0
   -0.5783    0.4668    2.9144 H   0  0  0  0  0  0  0  0  0  0  0  0
    1.7774    0.8189    3.2061 H   0  0  0  0  0  0  0  0  0  0  0  0
    2.4078    1.6115    4.6698 H   0  0  0  0  0  0  0  0  0  0  0  0
   -0.3735   -1.6441    4.2210 H   0  0  0  0  0  0  0  0  0  0  0  0
    0.2464   -0.7205    5.6102 H   0  0  0  0  0  0  0  0  0  0  0  0
   -2.3410   10.2460    0.7170 H   0  0  0  0  0  0  0  0  0  0  0  0
   -2.1860    9.0690    2.0130 H   0  0  0  0  0  0  0  0  0  0  0  0
   -0.7190    9.8570    1.3180 H   0  0  0  0  0  0  0  0  0  0  0  0
   -2.3460    8.0200   -1.9300 H   0  0  0  0  0  0  0  0  0  0  0  0
   -2.0940    9.7190   -1.5390 H   0  0  0  0  0  0  0  0  0  0  0  0
   -0.7040    8.6980   -1.8730 H   0  0  0  0  0  0  0  0  0  0  0  0
  1 42  1  0  0  0  0
  1 43  1  0  0  0  0
  1 44  1  0  0  0  0
  1  3  1  0  0  0  0
  2 45  1  0  0  0  0
  2 46  1  0  0  0  0
  2 47  1  0  0  0  0
  2  3  1  0  0  0  0
  3  4  1  0  0  0  0
  3 17  1  0  0  0  0
  4  5  1  0  0  0  0
  4 16  1  0  0  0  0
  4 19  1  0  0  0  0
  5  6  1  0  0  0  0
  5 20  1  0  0  0  0
  5 21  1  0  0  0  0
  6  7  1  0  0  0  0
  6 18  1  0  0  0  0
  6 23  1  0  0  0  0
  7  8  1  0  0  0  0
  7  9  1  0  0  0  0
  7 25  1  0  0  0  0
  8 22  1  0  0  0  0
  8 26  1  0  0  0  0
  8 27  1  0  0  0  0
  9 10  1  0  0  0  0
  9 24  1  0  0  0  0
  9 29  1  0  0  0  0
 10 11  1  0  0  0  0
 10 28  1  0  0  0  0
 10 31  1  0  0  0  0
 11 12  1  0  0  0  0
 11 30  1  0  0  0  0
 11 33  1  0  0  0  0
 12 13  1  0  0  0  0
 12 14  1  0  0  0  0
 12 35  1  0  0  0  0
 13 15  1  0  0  0  0
 13 34  1  0  0  0  0
 13 37  1  0  0  0  0
 14 32  1  0  0  0  0
 14 38  1  0  0  0  0
 14 39  1  0  0  0  0
 15 36  1  0  0  0  0
 15 40  1  0  0  0  0
 15 41  1  0  0  0  0
M  END
$$$$
farnesyl_sat.pdb_5
 OpenBabel07241819373D
VDW energy = 54.09
 47 46  0  0  0  0  0  0  0  0999 V2000
   -1.7100    9.4390    1.0900 C   0  0  0  0  0  0  0  0  0  0  0  0
   -1.6880    8.7310   -1.4210 C   0  0  0  0  0  0  0  0  0  0  0  0
   -1.5890    8.3130    0.0530 C   0  0  0  0  0  0  0  0  0  0  0  0
   -2.7120    7.2970    0.3300 C   0  0  0  0  0  0  0  0  0  0  0  0
   -2.2234    5.8804   -0.0250 C   0  0  0  0  0  0  0  0  0  0  0  0
   -3.3469    4.8646    0.2523 C   0  0  0  0  0  0  0  0  0  0  0  0
   -2.7416    3.5792    0.8465 C   0  0  0  0  0  0  0  0  0  0  0  0
   -3.8638    2.5619    1.1245 C   0  0  0  0  0  0  0  0  0  0  0  0
   -2.0136    3.9143    2.1619 C   0  0  0  0  0  0  0  0  0  0  0  0
   -1.3428    2.6438    2.7164 C   0  0  0  0  0  0  0  0  0  0  0  0
   -0.4497    3.0145    3.9156 C   0  0  0  0  0  0  0  0  0  0  0  0
    0.2621    1.7531    4.4361 C   0  0  0  0  0  0  0  0  0  0  0  0
    0.3123    0.6934    3.3200 C   0  0  0  0  0  0  0  0  0  0  0  0
    1.6969    2.1128    4.8673 C   0  0  0  0  0  0  0  0  0  0  0  0
    1.0244   -0.5687    3.8406 C   0  0  0  0  0  0  0  0  0  0  0  0
   -2.9855    7.3343    1.3844 H   0  0  0  0  0  0  0  0  0  0  0  0
   -0.5820    7.9150    0.1740 H   0  0  0  0  0  0  0  0  0  0  0  0
   -4.0579    5.2915    0.9589 H   0  0  0  0  0  0  0  0  0  0  0  0
   -3.5829    7.5433   -0.2787 H   0  0  0  0  0  0  0  0  0  0  0  0
   -1.3510    5.6336    0.5804 H   0  0  0  0  0  0  0  0  0  0  0  0
   -1.9538    5.8440   -1.0807 H   0  0  0  0  0  0  0  0  0  0  0  0
   -4.8190    2.9773    0.8008 H   0  0  0  0  0  0  0  0  0  0  0  0
   -3.8595    4.6268   -0.6794 H   0  0  0  0  0  0  0  0  0  0  0  0
   -1.2550    4.6740    1.9759 H   0  0  0  0  0  0  0  0  0  0  0  0
   -2.0317    3.1514    0.1390 H   0  0  0  0  0  0  0  0  0  0  0  0
   -3.9040    2.3474    2.1926 H   0  0  0  0  0  0  0  0  0  0  0  0
   -3.6634    1.6413    0.5761 H   0  0  0  0  0  0  0  0  0  0  0  0
   -2.1092    1.9385    3.0387 H   0  0  0  0  0  0  0  0  0  0  0  0
   -2.7336    4.2903    2.8888 H   0  0  0  0  0  0  0  0  0  0  0  0
    0.2924    3.7484    3.6023 H   0  0  0  0  0  0  0  0  0  0  0  0
   -0.7330    2.1855    1.9381 H   0  0  0  0  0  0  0  0  0  0  0  0
    1.8425    3.1892    4.7818 H   0  0  0  0  0  0  0  0  0  0  0  0
   -1.0658    3.4378    4.7094 H   0  0  0  0  0  0  0  0  0  0  0  0
   -0.7030    0.4387    3.0146 H   0  0  0  0  0  0  0  0  0  0  0  0
   -0.2839    1.3540    5.2911 H   0  0  0  0  0  0  0  0  0  0  0  0
    2.0419   -0.3147    4.1392 H   0  0  0  0  0  0  0  0  0  0  0  0
    0.8586    1.0923    2.4654 H   0  0  0  0  0  0  0  0  0  0  0  0
    2.4098    1.5964    4.2254 H   0  0  0  0  0  0  0  0  0  0  0  0
    1.8514    1.8062    5.9024 H   0  0  0  0  0  0  0  0  0  0  0  0
    1.0544   -1.3207    3.0521 H   0  0  0  0  0  0  0  0  0  0  0  0
    0.4821   -0.9635    4.6990 H   0  0  0  0  0  0  0  0  0  0  0  0
   -2.3410   10.2460    0.7170 H   0  0  0  0  0  0  0  0  0  0  0  0
   -2.1860    9.0690    2.0130 H   0  0  0  0  0  0  0  0  0  0  0  0
   -0.7190    9.8570    1.3180 H   0  0  0  0  0  0  0  0  0  0  0  0
   -2.3460    8.0200   -1.9300 H   0  0  0  0  0  0  0  0  0  0  0  0
   -2.0940    9.7190   -1.5390 H   0  0  0  0  0  0  0  0  0  0  0  0
   -0.7040    8.6980   -1.8730 H   0  0  0  0  0  0  0  0  0  0  0  0
  1 42  1  0  0  0  0
  1 43  1  0  0  0  0
  1 44  1  0  0  0  0
  1  3  1  0  0  0  0
  2 45  1  0  0  0  0
  2 46  1  0  0  0  0
  2 47  1  0  0  0  0
  2  3  1  0  0  0  0
  3  4  1  0  0  0  0
  3 17  1  0  0  0  0
  4  5  1  0  0  0  0
  4 16  1  0  0  0  0
  4 19  1  0  0  0  0
  5  6  1  0  0  0  0
  5 20  1  0  0  0  0
  5 21  1  0  0  0  0
  6  7  1  0  0  0  0
  6 18  1  0  0  0  0
  6 23  1  0  0  0  0
  7  8  1  0  0  0  0
  7  9  1  0  0  0  0
  7 25  1  0  0  0  0
  8 22  1  0  0  0  0
  8 26  1  0  0  0  0
  8 27  1  0  0  0  0
  9 10  1  0  0  0  0
  9 24  1  0  0  0  0
  9 29  1  0  0  0  0
 10 11  1  0  0  0  0
 10 28  1  0  0  0  0
 10 31  1  0  0  0  0
 11 12  1  0  0  0  0
 11 30  1  0  0  0  0
 11 33  1  0  0  0  0
 12 13  1  0  0  0  0
 12 14  1  0  0  0  0
 12 35  1  0  0  0  0
 13 15  1  0  0  0  0
 13 34  1  0  0  0  0
 13 37  1  0  0  0  0
 14 32  1  0  0  0  0
 14 38  1  0  0  0  0
 14 39  1  0  0  0  0
 15 36  1  0  0  0  0
 15 40  1  0  0  0  0
 15 41  1  0  0  0  0
M  END
$$$$
farnesyl_sat.pdb_6
 OpenBabel07241819373D
VDW energy = 57.14
 47 46  0  0  0  0  0  0  0  0999 V2000
   -1.7100    9.4390    1.0900 C   0  0  0  0  0  0  0  0  0  0  0  0
   -1.6880    8.7310   -1.4210 C   0  0  0  0  0  0  0  0  0  0  0  0
   -1.5890    8.3130    0.0530 C   0  0  0  0  0  0  0  0  0  0  0  0
   -2.7120    7.2970    0.3300 C   0  0  0  0  0  0  0  0  0  0  0  0
   -2.2234    5.8804   -0.0250 C   0  0  0  0  0  0  0  0  0  0  0  0
   -3.3469    4.8646    0.2523 C   0  0  0  0  0  0  0  0  0  0  0  0
   -2.7416    3.5792    0.8465 C   0  0  0  0  0  0  0  0  0  0  0  0
   -3.8638    2.5619    1.1245 C   0  0  0  0  0  0  0  0  0  0  0  0
   -2.0136    3.9143    2.1619 C   0  0  0  0  0  0  0  0  0  0  0  0
   -1.3428    2.6438    2.7164 C   0  0  0  0  0  0  0  0  0  0  0  0
   -0.4497    3.0145    3.9156 C   0  0  0  0  0  0  0  0  0  0  0  0
    0.2621    1.7531    4.4361 C   0  0  0  0  0  0  0  0  0  0  0  0
    1.4743    2.1631    5.2925 C   0  0  0  0  0  0  0  0  0  0  0  0
   -0.7161    0.9269    5.2932 C   0  0  0  0  0  0  0  0  0  0  0  0
    1.9123    3.5901    4.9143 C   0  0  0  0  0  0  0  0  0  0  0  0
   -2.9855    7.3343    1.3844 H   0  0  0  0  0  0  0  0  0  0  0  0
   -0.5820    7.9150    0.1740 H   0  0  0  0  0  0  0  0  0  0  0  0
   -4.0579    5.2915    0.9589 H   0  0  0  0  0  0  0  0  0  0  0  0
   -3.5829    7.5433   -0.2787 H   0  0  0  0  0  0  0  0  0  0  0  0
   -1.3510    5.6336    0.5804 H   0  0  0  0  0  0  0  0  0  0  0  0
   -1.9538    5.8440   -1.0807 H   0  0  0  0  0  0  0  0  0  0  0  0
   -4.8190    2.9773    0.8008 H   0  0  0  0  0  0  0  0  0  0  0  0
   -3.8595    4.6268   -0.6794 H   0  0  0  0  0  0  0  0  0  0  0  0
   -1.2550    4.6740    1.9759 H   0  0  0  0  0  0  0  0  0  0  0  0
   -2.0317    3.1514    0.1390 H   0  0  0  0  0  0  0  0  0  0  0  0
   -3.9040    2.3474    2.1926 H   0  0  0  0  0  0  0  0  0  0  0  0
   -3.6634    1.6413    0.5761 H   0  0  0  0  0  0  0  0  0  0  0  0
   -2.1092    1.9385    3.0387 H   0  0  0  0  0  0  0  0  0  0  0  0
   -2.7336    4.2903    2.8888 H   0  0  0  0  0  0  0  0  0  0  0  0
    0.2924    3.7484    3.6023 H   0  0  0  0  0  0  0  0  0  0  0  0
   -0.7330    2.1855    1.9381 H   0  0  0  0  0  0  0  0  0  0  0  0
   -1.7040    1.3854    5.2602 H   0  0  0  0  0  0  0  0  0  0  0  0
   -1.0658    3.4378    4.7094 H   0  0  0  0  0  0  0  0  0  0  0  0
    1.2006    2.1340    6.3476 H   0  0  0  0  0  0  0  0  0  0  0  0
    0.6007    1.1521    3.5920 H   0  0  0  0  0  0  0  0  0  0  0  0
    2.1927    3.6168    3.8608 H   0  0  0  0  0  0  0  0  0  0  0  0
    2.2966    1.4709    5.1122 H   0  0  0  0  0  0  0  0  0  0  0  0
   -0.3620    0.8979    6.3231 H   0  0  0  0  0  0  0  0  0  0  0  0
   -0.7733   -0.0886    4.8998 H   0  0  0  0  0  0  0  0  0  0  0  0
    2.7667    3.8820    5.5249 H   0  0  0  0  0  0  0  0  0  0  0  0
    1.0882    4.2809    5.0882 H   0  0  0  0  0  0  0  0  0  0  0  0
   -2.3410   10.2460    0.7170 H   0  0  0  0  0  0  0  0  0  0  0  0
   -2.1860    9.0690    2.0130 H   0  0  0  0  0  0  0  0  0  0  0  0
   -0.7190    9.8570    1.3180 H   0  0  0  0  0  0  0  0  0  0  0  0
   -2.3460    8.0200   -1.9300 H   0  0  0  0  0  0  0  0  0  0  0  0
   -2.0940    9.7190   -1.5390 H   0  0  0  0  0  0  0  0  0  0  0  0
   -0.7040    8.6980   -1.8730 H   0  0  0  0  0  0  0  0  0  0  0  0
  1 42  1  0  0  0  0
  1 43  1  0  0  0  0
  1 44  1  0  0  0  0
  1  3  1  0  0  0  0
  2 45  1  0  0  0  0
  2 46  1  0  0  0  0
  2 47  1  0  0  0  0
  2  3  1  0  0  0  0
  3  4  1  0  0  0  0
  3 17  1  0  0  0  0
  4  5  1  0  0  0  0
  4 16  1  0  0  0  0
  4 19  1  0  0  0  0
  5  6  1  0  0  0  0
  5 20  1  0  0  0  0
  5 21  1  0  0  0  0
  6  7  1  0  0  0  0
  6 18  1  0  0  0  0
  6 23  1  0  0  0  0
  7  8  1  0  0  0  0
  7  9  1  0  0  0  0
  7 25  1  0  0  0  0
  8 22  1  0  0  0  0
  8 26  1  0  0  0  0
  8 27  1  0  0  0  0
  9 10  1  0  0  0  0
  9 24  1  0  0  0  0
  9 29  1  0  0  0  0
 10 11  1  0  0  0  0
 10 28  1  0  0  0  0
 10 31  1  0  0  0  0
 11 12  1  0  0  0  0
 11 30  1  0  0  0  0
 11 33  1  0  0  0  0
 12 13  1  0  0  0  0
 12 14  1  0  0  0  0
 12 35  1  0  0  0  0
 13 15  1  0  0  0  0
 13 34  1  0  0  0  0
 13 37  1  0  0  0  0
 14 32  1  0  0  0  0
 14 38  1  0  0  0  0
 14 39  1  0  0  0  0
 15 36  1  0  0  0  0
 15 40  1  0  0  0  0
 15 41  1  0  0  0  0
M  END
$$$$
farnesyl_sat.pdb_7
 OpenBabel07241819373D
VDW energy = 62.37
 47 46  0  0  0  0  0  0  0  0999 V2000
   -1.7100    9.4390    1.0900 C   0  0  0  0  0  0  0  0  0  0  0  0
   -1.6880    8.7310   -1.4210 C   0  0  0  0  0  0  0  0  0  0  0  0
   -1.5890    8.3130    0.0530 C   0  0  0  0  0  0  0  0  0  0  0  0
   -2.7120    7.2970    0.3300 C   0  0  0  0  0  0  0  0  0  0  0  0
   -2.2234    5.8804   -0.0250 C   0  0  0  0  0  0  0  0  0  0  0  0
   -2.2112    5.7092   -1.5551 C   0  0  0  0  0  0  0  0  0  0  0  0
   -2.6879    4.2900   -1.9166 C   0  0  0  0  0  0  0  0  0  0  0  0
   -2.6764    4.1168   -3.4468 C   0  0  0  0  0  0  0  0  0  0  0  0
   -4.1181    4.0773   -1.3855 C   0  0  0  0  0  0  0  0  0  0  0  0
   -4.5660    2.6334   -1.6789 C   0  0  0  0  0  0  0  0  0  0  0  0
   -5.9076    2.3572   -0.9741 C   0  0  0  0  0  0  0  0  0  0  0  0
   -6.3286    0.8980   -1.2232 C   0  0  0  0  0  0  0  0  0  0  0  0
   -5.6271    0.3691   -2.4878 C   0  0  0  0  0  0  0  0  0  0  0  0
   -5.9266    0.0327   -0.0133 C   0  0  0  0  0  0  0  0  0  0  0  0
   -6.0799   -1.0773   -2.7605 C   0  0  0  0  0  0  0  0  0  0  0  0
   -2.9855    7.3343    1.3844 H   0  0  0  0  0  0  0  0  0  0  0  0
   -0.5820    7.9150    0.1740 H   0  0  0  0  0  0  0  0  0  0  0  0
   -2.8770    6.4425   -2.0092 H   0  0  0  0  0  0  0  0  0  0  0  0
   -3.5829    7.5433   -0.2787 H   0  0  0  0  0  0  0  0  0  0  0  0
   -2.8918    5.1426    0.4194 H   0  0  0  0  0  0  0  0  0  0  0  0
   -1.2151    5.7367    0.3641 H   0  0  0  0  0  0  0  0  0  0  0  0
   -2.2983    5.0277   -3.9126 H   0  0  0  0  0  0  0  0  0  0  0  0
   -1.1987    5.8576   -1.9291 H   0  0  0  0  0  0  0  0  0  0  0  0
   -4.1379    4.2525   -0.3104 H   0  0  0  0  0  0  0  0  0  0  0  0
   -2.0211    3.5567   -1.4639 H   0  0  0  0  0  0  0  0  0  0  0  0
   -3.6899    3.9224   -3.7985 H   0  0  0  0  0  0  0  0  0  0  0  0
   -2.0324    3.2784   -3.7125 H   0  0  0  0  0  0  0  0  0  0  0  0
   -4.6867    2.5010   -2.7543 H   0  0  0  0  0  0  0  0  0  0  0  0
   -4.7953    4.7740   -1.8797 H   0  0  0  0  0  0  0  0  0  0  0  0
   -5.7968    2.5266    0.0967 H   0  0  0  0  0  0  0  0  0  0  0  0
   -3.8128    1.9373   -1.3104 H   0  0  0  0  0  0  0  0  0  0  0  0
   -5.5157    0.6706    0.7686 H   0  0  0  0  0  0  0  0  0  0  0  0
   -6.6703    3.0281   -1.3704 H   0  0  0  0  0  0  0  0  0  0  0  0
   -5.8883    0.9988   -3.3387 H   0  0  0  0  0  0  0  0  0  0  0  0
   -7.4090    0.8494   -1.3603 H   0  0  0  0  0  0  0  0  0  0  0  0
   -5.8120   -1.7079   -1.9122 H   0  0  0  0  0  0  0  0  0  0  0  0
   -4.5476    0.3898   -2.3393 H   0  0  0  0  0  0  0  0  0  0  0  0
   -5.1774   -0.6962   -0.3204 H   0  0  0  0  0  0  0  0  0  0  0  0
   -6.8059   -0.4882    0.3673 H   0  0  0  0  0  0  0  0  0  0  0  0
   -5.5876   -1.4491   -3.6591 H   0  0  0  0  0  0  0  0  0  0  0  0
   -7.1598   -1.0989   -2.9022 H   0  0  0  0  0  0  0  0  0  0  0  0
   -2.3410   10.2460    0.7170 H   0  0  0  0  0  0  0  0  0  0  0  0
   -2.1860    9.0690    2.0130 H   0  0  0  0  0  0  0  0  0  0  0  0
   -0.7190    9.8570    1.3180 H   0  0  0  0  0  0  0  0  0  0  0  0
   -2.3460    8.0200   -1.9300 H   0  0  0  0  0  0  0  0  0  0  0  0
   -2.0940    9.7190   -1.5390 H   0  0  0  0  0  0  0  0  0  0  0  0
   -0.7040    8.6980   -1.8730 H   0  0  0  0  0  0  0  0  0  0  0  0
  1 42  1  0  0  0  0
  1 43  1  0  0  0  0
  1 44  1  0  0  0  0
  1  3  1  0  0  0  0
  2 45  1  0  0  0  0
  2 46  1  0  0  0  0
  2 47  1  0  0  0  0
  2  3  1  0  0  0  0
  3  4  1  0  0  0  0
  3 17  1  0  0  0  0
  4  5  1  0  0  0  0
  4 16  1  0  0  0  0
  4 19  1  0  0  0  0
  5  6  1  0  0  0  0
  5 20  1  0  0  0  0
  5 21  1  0  0  0  0
  6  7  1  0  0  0  0
  6 18  1  0  0  0  0
  6 23  1  0  0  0  0
  7  8  1  0  0  0  0
  7  9  1  0  0  0  0
  7 25  1  0  0  0  0
  8 22  1  0  0  0  0
  8 26  1  0  0  0  0
  8 27  1  0  0  0  0
  9 10  1  0  0  0  0
  9 24  1  0  0  0  0
  9 29  1  0  0  0  0
 10 11  1  0  0  0  0
 10 28  1  0  0  0  0
 10 31  1  0  0  0  0
 11 12  1  0  0  0  0
 11 30  1  0  0  0  0
 11 33  1  0  0  0  0
 12 13  1  0  0  0  0
 12 14  1  0  0  0  0
 12 35  1  0  0  0  0
 13 15  1  0  0  0  0
 13 34  1  0  0  0  0
 13 37  1  0  0  0  0
 14 32  1  0  0  0  0
 14 38  1  0  0  0  0
 14 39  1  0  0  0  0
 15 36  1  0  0  0  0
 15 40  1  0  0  0  0
 15 41  1  0  0  0  0
M  END
$$$$
farnesyl_sat.pdb_8
 OpenBabel07241819373D
VDW energy = 62.65
 47 46  0  0  0  0  0  0  0  0999 V2000
   -1.7100    9.4390    1.0900 C   0  0  0  0  0  0  0  0  0  0  0  0
   -1.6880    8.7310   -1.4210 C   0  0  0  0  0  0  0  0  0  0  0  0
   -1.5890    8.3130    0.0530 C   0  0  0  0  0  0  0  0  0  0  0  0
   -2.7120    7.2970    0.3300 C   0  0  0  0  0  0  0  0  0  0  0  0
   -2.2234    5.8804   -0.0250 C   0  0  0  0  0  0  0  0  0  0  0  0
   -3.3469    4.8646    0.2523 C   0  0  0  0  0  0  0  0  0  0  0  0
   -2.7416    3.5792    0.8465 C   0  0  0  0  0  0  0  0  0  0  0  0
   -3.8638    2.5619    1.1245 C   0  0  0  0  0  0  0  0  0  0  0  0
   -2.0136    3.9143    2.1619 C   0  0  0  0  0  0  0  0  0  0  0  0
   -1.3428    2.6438    2.7164 C   0  0  0  0  0  0  0  0  0  0  0  0
   -0.4497    3.0145    3.9156 C   0  0  0  0  0  0  0  0  0  0  0  0
   -0.0723    4.5044    3.8345 C   0  0  0  0  0  0  0  0  0  0  0  0
    0.4032    4.9903    5.2161 C   0  0  0  0  0  0  0  0  0  0  0  0
    1.0597    4.6933    2.8064 C   0  0  0  0  0  0  0  0  0  0  0  0
    0.7809    6.4810    5.1352 C   0  0  0  0  0  0  0  0  0  0  0  0
   -2.9855    7.3343    1.3844 H   0  0  0  0  0  0  0  0  0  0  0  0
   -0.5820    7.9150    0.1740 H   0  0  0  0  0  0  0  0  0  0  0  0
   -4.0579    5.2915    0.9589 H   0  0  0  0  0  0  0  0  0  0  0  0
   -3.5829    7.5433   -0.2787 H   0  0  0  0  0  0  0  0  0  0  0  0
   -1.3510    5.6336    0.5804 H   0  0  0  0  0  0  0  0  0  0  0  0
   -1.9538    5.8440   -1.0807 H   0  0  0  0  0  0  0  0  0  0  0  0
   -4.8190    2.9773    0.8008 H   0  0  0  0  0  0  0  0  0  0  0  0
   -3.8595    4.6268   -0.6794 H   0  0  0  0  0  0  0  0  0  0  0  0
   -1.2550    4.6740    1.9759 H   0  0  0  0  0  0  0  0  0  0  0  0
   -2.0317    3.1514    0.1390 H   0  0  0  0  0  0  0  0  0  0  0  0
   -3.9040    2.3474    2.1926 H   0  0  0  0  0  0  0  0  0  0  0  0
   -3.6634    1.6413    0.5761 H   0  0  0  0  0  0  0  0  0  0  0  0
   -2.1092    1.9385    3.0387 H   0  0  0  0  0  0  0  0  0  0  0  0
   -2.7336    4.2903    2.8888 H   0  0  0  0  0  0  0  0  0  0  0  0
   -0.9902    2.8256    4.8427 H   0  0  0  0  0  0  0  0  0  0  0  0
   -0.7330    2.1855    1.9381 H   0  0  0  0  0  0  0  0  0  0  0  0
    1.2687    3.7421    2.3178 H   0  0  0  0  0  0  0  0  0  0  0  0
    0.4564    2.4084    3.8941 H   0  0  0  0  0  0  0  0  0  0  0  0
   -0.3976    4.8567    5.9439 H   0  0  0  0  0  0  0  0  0  0  0  0
   -0.9426    5.0838    3.5258 H   0  0  0  0  0  0  0  0  0  0  0  0
    1.5866    6.6129    4.4125 H   0  0  0  0  0  0  0  0  0  0  0  0
    1.2736    4.4114    5.5245 H   0  0  0  0  0  0  0  0  0  0  0  0
    1.9565    5.0472    3.3138 H   0  0  0  0  0  0  0  0  0  0  0  0
    0.7517    5.4257    2.0594 H   0  0  0  0  0  0  0  0  0  0  0  0
    1.1118    6.8259    6.1148 H   0  0  0  0  0  0  0  0  0  0  0  0
   -0.0873    7.0588    4.8205 H   0  0  0  0  0  0  0  0  0  0  0  0
   -2.3410   10.2460    0.7170 H   0  0  0  0  0  0  0  0  0  0  0  0
   -2.1860    9.0690    2.0130 H   0  0  0  0  0  0  0  0  0  0  0  0
   -0.7190    9.8570    1.3180 H   0  0  0  0  0  0  0  0  0  0  0  0
   -2.3460    8.0200   -1.9300 H   0  0  0  0  0  0  0  0  0  0  0  0
   -2.0940    9.7190   -1.5390 H   0  0  0  0  0  0  0  0  0  0  0  0
   -0.7040    8.6980   -1.8730 H   0  0  0  0  0  0  0  0  0  0  0  0
  1 42  1  0  0  0  0
  1 43  1  0  0  0  0
  1 44  1  0  0  0  0
  1  3  1  0  0  0  0
  2 45  1  0  0  0  0
  2 46  1  0  0  0  0
  2 47  1  0  0  0  0
  2  3  1  0  0  0  0
  3  4  1  0  0  0  0
  3 17  1  0  0  0  0
  4  5  1  0  0  0  0
  4 16  1  0  0  0  0
  4 19  1  0  0  0  0
  5  6  1  0  0  0  0
  5 20  1  0  0  0  0
  5 21  1  0  0  0  0
  6  7  1  0  0  0  0
  6 18  1  0  0  0  0
  6 23  1  0  0  0  0
  7  8  1  0  0  0  0
  7  9  1  0  0  0  0
  7 25  1  0  0  0  0
  8 22  1  0  0  0  0
  8 26  1  0  0  0  0
  8 27  1  0  0  0  0
  9 10  1  0  0  0  0
  9 24  1  0  0  0  0
  9 29  1  0  0  0  0
 10 11  1  0  0  0  0
 10 28  1  0  0  0  0
 10 31  1  0  0  0  0
 11 12  1  0  0  0  0
 11 30  1  0  0  0  0
 11 33  1  0  0  0  0
 12 13  1  0  0  0  0
 12 14  1  0  0  0  0
 12 35  1  0  0  0  0
 13 15  1  0  0  0  0
 13 34  1  0  0  0  0
 13 37  1  0  0  0  0
 14 32  1  0  0  0  0
 14 38  1  0  0  0  0
 14 39  1  0  0  0  0
 15 36  1  0  0  0  0
 15 40  1  0  0  0  0
 15 41  1  0  0  0  0
M  END
$$$$
farnesyl_sat.pdb_9
 OpenBabel07241819373D
VDW energy = 63.07
 47 46  0  0  0  0  0  0  0  0999 V2000
   -1.7100    9.4390    1.0900 C   0  0  0  0  0  0  0  0  0  0  0  0
   -1.6880    8.7310   -1.4210 C   0  0  0  0  0  0  0  0  0  0  0  0
   -1.5890    8.3130    0.0530 C   0  0  0  0  0  0  0  0  0  0  0  0
   -2.7120    7.2970    0.3300 C   0  0  0  0  0  0  0  0  0  0  0  0
   -2.2234    5.8804   -0.0250 C   0  0  0  0  0  0  0  0  0  0  0  0
   -2.2112    5.7092   -1.5551 C   0  0  0  0  0  0  0  0  0  0  0  0
   -2.6879    4.2900   -1.9166 C   0  0  0  0  0  0  0  0  0  0  0  0
   -2.6764    4.1168   -3.4468 C   0  0  0  0  0  0  0  0  0  0  0  0
   -4.1181    4.0773   -1.3855 C   0  0  0  0  0  0  0  0  0  0  0  0
   -4.5660    2.6334   -1.6789 C   0  0  0  0  0  0  0  0  0  0  0  0
   -5.9076    2.3572   -0.9741 C   0  0  0  0  0  0  0  0  0  0  0  0
   -6.3286    0.8980   -1.2232 C   0  0  0  0  0  0  0  0  0  0  0  0
   -5.0886    0.0594   -1.5839 C   0  0  0  0  0  0  0  0  0  0  0  0
   -6.9822    0.3265    0.0497 C   0  0  0  0  0  0  0  0  0  0  0  0
   -5.5151   -1.3916   -1.8734 C   0  0  0  0  0  0  0  0  0  0  0  0
   -2.9855    7.3343    1.3844 H   0  0  0  0  0  0  0  0  0  0  0  0
   -0.5820    7.9150    0.1740 H   0  0  0  0  0  0  0  0  0  0  0  0
   -2.8770    6.4425   -2.0092 H   0  0  0  0  0  0  0  0  0  0  0  0
   -3.5829    7.5433   -0.2787 H   0  0  0  0  0  0  0  0  0  0  0  0
   -2.8918    5.1426    0.4194 H   0  0  0  0  0  0  0  0  0  0  0  0
   -1.2151    5.7367    0.3641 H   0  0  0  0  0  0  0  0  0  0  0  0
   -2.2983    5.0277   -3.9126 H   0  0  0  0  0  0  0  0  0  0  0  0
   -1.1987    5.8576   -1.9291 H   0  0  0  0  0  0  0  0  0  0  0  0
   -4.1379    4.2525   -0.3104 H   0  0  0  0  0  0  0  0  0  0  0  0
   -2.0211    3.5567   -1.4639 H   0  0  0  0  0  0  0  0  0  0  0  0
   -3.6899    3.9224   -3.7985 H   0  0  0  0  0  0  0  0  0  0  0  0
   -2.0324    3.2784   -3.7125 H   0  0  0  0  0  0  0  0  0  0  0  0
   -4.6867    2.5010   -2.7543 H   0  0  0  0  0  0  0  0  0  0  0  0
   -4.7953    4.7740   -1.8797 H   0  0  0  0  0  0  0  0  0  0  0  0
   -5.7968    2.5266    0.0967 H   0  0  0  0  0  0  0  0  0  0  0  0
   -3.8128    1.9373   -1.3104 H   0  0  0  0  0  0  0  0  0  0  0  0
   -7.0691    1.1138    0.7979 H   0  0  0  0  0  0  0  0  0  0  0  0
   -6.6703    3.0281   -1.3704 H   0  0  0  0  0  0  0  0  0  0  0  0
   -4.6090    0.4811   -2.4677 H   0  0  0  0  0  0  0  0  0  0  0  0
   -7.0435    0.8609   -2.0454 H   0  0  0  0  0  0  0  0  0  0  0  0
   -5.9882   -1.8150   -0.9869 H   0  0  0  0  0  0  0  0  0  0  0  0
   -4.3869    0.0722   -0.7500 H   0  0  0  0  0  0  0  0  0  0  0  0
   -6.3675   -0.4830    0.4421 H   0  0  0  0  0  0  0  0  0  0  0  0
   -7.9744   -0.0555   -0.1931 H   0  0  0  0  0  0  0  0  0  0  0  0
   -4.6378   -1.9833   -2.1345 H   0  0  0  0  0  0  0  0  0  0  0  0
   -6.2216   -1.4037   -2.7026 H   0  0  0  0  0  0  0  0  0  0  0  0
   -2.3410   10.2460    0.7170 H   0  0  0  0  0  0  0  0  0  0  0  0
   -2.1860    9.0690    2.0130 H   0  0  0  0  0  0  0  0  0  0  0  0
   -0.7190    9.8570    1.3180 H   0  0  0  0  0  0  0  0  0  0  0  0
   -2.3460    8.0200   -1.9300 H   0  0  0  0  0  0  0  0  0  0  0  0
   -2.0940    9.7190   -1.5390 H   0  0  0  0  0  0  0  0  0  0  0  0
   -0.7040    8.6980   -1.8730 H   0  0  0  0  0  0  0  0  0  0  0  0
  1 42  1  0  0  0  0
  1 43  1  0  0  0  0
  1 44  1  0  0  0  0
  1  3  1  0  0  0  0
  2 45  1  0  0  0  0
  2 46  1  0  0  0  0
  2 47  1  0  0  0  0
  2  3  1  0  0  0  0
  3  4  1  0  0  0  0
  3 17  1  0  0  0  0
  4  5  1  0  0  0  0
  4 16  1  0  0  0  0
  4 19  1  0  0  0  0
  5  6  1  0  0  0  0
  5 20  1  0  0  0  0
  5 21  1  0  0  0  0
  6  7  1  0  0  0  0
  6 18  1  0  0  0  0
  6 23  1  0  0  0  0
  7  8  1  0  0  0  0
  7  9  1  0  0  0  0
  7 25  1  0  0  0  0
  8 22  1  0  0  0  0
  8 26  1  0  0  0  0
  8 27  1  0  0  0  0
  9 10  1  0  0  0  0
  9 24  1  0  0  0  0
  9 29  1  0  0  0  0
 10 11  1  0  0  0  0
 10 28  1  0  0  0  0
 10 31  1  0  0  0  0
 11 12  1  0  0  0  0
 11 30  1  0  0  0  0
 11 33  1  0  0  0  0
 12 13  1  0  0  0  0
 12 14  1  0  0  0  0
 12 35  1  0  0  0  0
 13 15  1  0  0  0  0
 13 34  1  0  0  0  0
 13 37  1  0  0  0  0
 14 32  1  0  0  0  0
 14 38  1  0  0  0  0
 14 39  1  0  0  0  0
 15 36  1  0  0  0  0
 15 40  1  0  0  0  0
 15 41  1  0  0  0  0
M  END
$$$$
farnesyl_sat.pdb_10
 OpenBabel07241819373D
VDW energy = 66.36
 47 46  0  0  0  0  0  0  0  0999 V2000
   -1.7100    9.4390    1.0900 C   0  0  0  0  0  0  0  0  0  0  0  0
   -1.6880    8.7310   -1.4210 C   0  0  0  0  0  0  0  0  0  0  0  0
   -1.5890    8.3130    0.0530 C   0  0  0  0  0  0  0  0  0  0  0  0
   -2.7120    7.2970    0.3300 C   0  0  0  0  0  0  0  0  0  0  0  0
   -2.2234    5.8804   -0.0250 C   0  0  0  0  0  0  0  0  0  0  0  0
   -2.2112    5.7092   -1.5551 C   0  0  0  0  0  0  0  0  0  0  0  0
   -2.6879    4.2900   -1.9166 C   0  0  0  0  0  0  0  0  0  0  0  0
   -2.6764    4.1168   -3.4468 C   0  0  0  0  0  0  0  0  0  0  0  0
   -4.1181    4.0773   -1.3855 C   0  0  0  0  0  0  0  0  0  0  0  0
   -4.5660    2.6334   -1.6789 C   0  0  0  0  0  0  0  0  0  0  0  0
   -5.9076    2.3572   -0.9741 C   0  0  0  0  0  0  0  0  0  0  0  0
   -6.3286    0.8980   -1.2232 C   0  0  0  0  0  0  0  0  0  0  0  0
   -7.3791    0.4802   -0.1777 C   0  0  0  0  0  0  0  0  0  0  0  0
   -6.9310    0.7701   -2.6356 C   0  0  0  0  0  0  0  0  0  0  0  0
   -7.2648    1.3909    1.0587 C   0  0  0  0  0  0  0  0  0  0  0  0
   -2.9855    7.3343    1.3844 H   0  0  0  0  0  0  0  0  0  0  0  0
   -0.5820    7.9150    0.1740 H   0  0  0  0  0  0  0  0  0  0  0  0
   -2.8770    6.4425   -2.0092 H   0  0  0  0  0  0  0  0  0  0  0  0
   -3.5829    7.5433   -0.2787 H   0  0  0  0  0  0  0  0  0  0  0  0
   -2.8918    5.1426    0.4194 H   0  0  0  0  0  0  0  0  0  0  0  0
   -1.2151    5.7367    0.3641 H   0  0  0  0  0  0  0  0  0  0  0  0
   -2.2983    5.0277   -3.9126 H   0  0  0  0  0  0  0  0  0  0  0  0
   -1.1987    5.8576   -1.9291 H   0  0  0  0  0  0  0  0  0  0  0  0
   -4.1379    4.2525   -0.3104 H   0  0  0  0  0  0  0  0  0  0  0  0
   -2.0211    3.5567   -1.4639 H   0  0  0  0  0  0  0  0  0  0  0  0
   -3.6899    3.9224   -3.7985 H   0  0  0  0  0  0  0  0  0  0  0  0
   -2.0324    3.2784   -3.7125 H   0  0  0  0  0  0  0  0  0  0  0  0
   -4.6867    2.5010   -2.7543 H   0  0  0  0  0  0  0  0  0  0  0  0
   -4.7953    4.7740   -1.8797 H   0  0  0  0  0  0  0  0  0  0  0  0
   -5.7968    2.5266    0.0967 H   0  0  0  0  0  0  0  0  0  0  0  0
   -3.8128    1.9373   -1.3104 H   0  0  0  0  0  0  0  0  0  0  0  0
   -6.8403    1.7228   -3.1565 H   0  0  0  0  0  0  0  0  0  0  0  0
   -6.6703    3.0281   -1.3704 H   0  0  0  0  0  0  0  0  0  0  0  0
   -8.3768    0.5734   -0.6075 H   0  0  0  0  0  0  0  0  0  0  0  0
   -5.4567    0.2488   -1.1410 H   0  0  0  0  0  0  0  0  0  0  0  0
   -6.2692    1.2918    1.4922 H   0  0  0  0  0  0  0  0  0  0  0  0
   -7.2065   -0.5550    0.1165 H   0  0  0  0  0  0  0  0  0  0  0  0
   -7.9824    0.4952   -2.5590 H   0  0  0  0  0  0  0  0  0  0  0  0
   -6.3934    0.0000   -3.1900 H   0  0  0  0  0  0  0  0  0  0  0  0
   -8.0125    1.0986    1.7960 H   0  0  0  0  0  0  0  0  0  0  0  0
   -7.4308    2.4263    0.7635 H   0  0  0  0  0  0  0  0  0  0  0  0
   -2.3410   10.2460    0.7170 H   0  0  0  0  0  0  0  0  0  0  0  0
   -2.1860    9.0690    2.0130 H   0  0  0  0  0  0  0  0  0  0  0  0
   -0.7190    9.8570    1.3180 H   0  0  0  0  0  0  0  0  0  0  0  0
   -2.3460    8.0200   -1.9300 H   0  0  0  0  0  0  0  0  0  0  0  0
   -2.0940    9.7190   -1.5390 H   0  0  0  0  0  0  0  0  0  0  0  0
   -0.7040    8.6980   -1.8730 H   0  0  0  0  0  0  0  0  0  0  0  0
  1 42  1  0  0  0  0
  1 43  1  0  0  0  0
  1 44  1  0  0  0  0
  1  3  1  0  0  0  0
  2 45  1  0  0  0  0
  2 46  1  0  0  0  0
  2 47  1  0  0  0  0
  2  3  1  0  0  0  0
  3  4  1  0  0  0  0
  3 17  1  0  0  0  0
  4  5  1  0  0  0  0
  4 16  1  0  0  0  0
  4 19  1  0  0  0  0
  5  6  1  0  0  0  0
  5 20  1  0  0  0  0
  5 21  1  0  0  0  0
  6  7  1  0  0  0  0
  6 18  1  0  0  0  0
  6 23  1  0  0  0  0
  7  8  1  0  0  0  0
  7  9  1  0  0  0  0
  7 25  1  0  0  0  0
  8 22  1  0  0  0  0
  8 26  1  0  0  0  0
  8 27  1  0  0  0  0
  9 10  1  0  0  0  0
  9 24  1  0  0  0  0
  9 29  1  0  0  0  0
 10 11  1  0  0  0  0
 10 28  1  0  0  0  0
 10 31  1  0  0  0  0
 11 12  1  0  0  0  0
 11 30  1  0  0  0  0
 11 33  1  0  0  0  0
 12 13  1  0  0  0  0
 12 14  1  0  0  0  0
 12 35  1  0  0  0  0
 13 15  1  0  0  0  0
 13 34  1  0  0  0  0
 13 37  1  0  0  0  0
 14 32  1  0  0  0  0
 14 38  1  0  0  0  0
 14 39  1  0  0  0  0
 15 36  1  0  0  0  0
 15 40  1  0  0  0  0
 15 41  1  0  0  0  0
M  END
$$$$
farnesyl_sat.pdb_11
 OpenBabel07241819373D
VDW energy = 66.78
 47 46  0  0  0  0  0  0  0  0999 V2000
   -1.7100    9.4390    1.0900 C   0  0  0  0  0  0  0  0  0  0  0  0
   -1.6880    8.7310   -1.4210 C   0  0  0  0  0  0  0  0  0  0  0  0
   -1.5890    8.3130    0.0530 C   0  0  0  0  0  0  0  0  0  0  0  0
   -2.7120    7.2970    0.3300 C   0  0  0  0  0  0  0  0  0  0  0  0
   -2.2234    5.8804   -0.0250 C   0  0  0  0  0  0  0  0  0  0  0  0
   -3.3469    4.8646    0.2523 C   0  0  0  0  0  0  0  0  0  0  0  0
   -2.7416    3.5792    0.8465 C   0  0  0  0  0  0  0  0  0  0  0  0
   -3.8638    2.5619    1.1245 C   0  0  0  0  0  0  0  0  0  0  0  0
   -2.0136    3.9143    2.1619 C   0  0  0  0  0  0  0  0  0  0  0  0
   -1.3428    2.6438    2.7164 C   0  0  0  0  0  0  0  0  0  0  0  0
   -1.1295    1.6334    1.5734 C   0  0  0  0  0  0  0  0  0  0  0  0
   -0.5081    0.3430    2.1369 C   0  0  0  0  0  0  0  0  0  0  0  0
   -0.2950   -0.6668    0.9941 C   0  0  0  0  0  0  0  0  0  0  0  0
    0.8472    0.6686    2.7935 C   0  0  0  0  0  0  0  0  0  0  0  0
    0.3267   -1.9579    1.5577 C   0  0  0  0  0  0  0  0  0  0  0  0
   -2.9855    7.3343    1.3844 H   0  0  0  0  0  0  0  0  0  0  0  0
   -0.5820    7.9150    0.1740 H   0  0  0  0  0  0  0  0  0  0  0  0
   -4.0579    5.2915    0.9589 H   0  0  0  0  0  0  0  0  0  0  0  0
   -3.5829    7.5433   -0.2787 H   0  0  0  0  0  0  0  0  0  0  0  0
   -1.3510    5.6336    0.5804 H   0  0  0  0  0  0  0  0  0  0  0  0
   -1.9538    5.8440   -1.0807 H   0  0  0  0  0  0  0  0  0  0  0  0
   -4.8190    2.9773    0.8008 H   0  0  0  0  0  0  0  0  0  0  0  0
   -3.8595    4.6268   -0.6794 H   0  0  0  0  0  0  0  0  0  0  0  0
   -1.2550    4.6740    1.9759 H   0  0  0  0  0  0  0  0  0  0  0  0
   -2.0317    3.1514    0.1390 H   0  0  0  0  0  0  0  0  0  0  0  0
   -3.9040    2.3474    2.1926 H   0  0  0  0  0  0  0  0  0  0  0  0
   -3.6634    1.6413    0.5761 H   0  0  0  0  0  0  0  0  0  0  0  0
   -0.3795    2.9031    3.1563 H   0  0  0  0  0  0  0  0  0  0  0  0
   -2.7336    4.2903    2.8888 H   0  0  0  0  0  0  0  0  0  0  0  0
   -2.0879    1.4034    1.1087 H   0  0  0  0  0  0  0  0  0  0  0  0
   -1.9815    2.1989    3.4792 H   0  0  0  0  0  0  0  0  0  0  0  0
    1.0078    1.7462    2.7795 H   0  0  0  0  0  0  0  0  0  0  0  0
   -0.4595    2.0642    0.8288 H   0  0  0  0  0  0  0  0  0  0  0  0
   -1.2539   -0.8974    0.5292 H   0  0  0  0  0  0  0  0  0  0  0  0
   -1.1774   -0.0878    2.8818 H   0  0  0  0  0  0  0  0  0  0  0  0
    1.2889   -1.7278    2.0162 H   0  0  0  0  0  0  0  0  0  0  0  0
    0.3746   -0.2362    0.2497 H   0  0  0  0  0  0  0  0  0  0  0  0
    1.6464    0.1738    2.2427 H   0  0  0  0  0  0  0  0  0  0  0  0
    0.8438    0.3150    3.8251 H   0  0  0  0  0  0  0  0  0  0  0  0
    0.4719   -2.6746    0.7494 H   0  0  0  0  0  0  0  0  0  0  0  0
   -0.3394   -2.3847    2.3066 H   0  0  0  0  0  0  0  0  0  0  0  0
   -2.3410   10.2460    0.7170 H   0  0  0  0  0  0  0  0  0  0  0  0
   -2.1860    9.0690    2.0130 H   0  0  0  0  0  0  0  0  0  0  0  0
   -0.7190    9.8570    1.3180 H   0  0  0  0  0  0  0  0  0  0  0  0
   -2.3460    8.0200   -1.9300 H   0  0  0  0  0  0  0  0  0  0  0  0
   -2.0940    9.7190   -1.5390 H   0  0  0  0  0  0  0  0  0  0  0  0
   -0.7040    8.6980   -1.8730 H   0  0  0  0  0  0  0  0  0  0  0  0
  1 42  1  0  0  0  0
  1 43  1  0  0  0  0
  1 44  1  0  0  0  0
  1  3  1  0  0  0  0
  2 45  1  0  0  0  0
  2 46  1  0  0  0  0
  2 47  1  0  0  0  0
  2  3  1  0  0  0  0
  3  4  1  0  0  0  0
  3 17  1  0  0  0  0
  4  5  1  0  0  0  0
  4 16  1  0  0  0  0
  4 19  1  0  0  0  0
  5  6  1  0  0  0  0
  5 20  1  0  0  0  0
  5 21  1  0  0  0  0
  6  7  1  0  0  0  0
  6 18  1  0  0  0  0
  6 23  1  0  0  0  0
  7  8  1  0  0  0  0
  7  9  1  0  0  0  0
  7 25  1  0  0  0  0
  8 22  1  0  0  0  0
  8 26  1  0  0  0  0
  8 27  1  0  0  0  0
  9 10  1  0  0  0  0
  9 24  1  0  0  0  0
  9 29  1  0  0  0  0
 10 11  1  0  0  0  0
 10 28  1  0  0  0  0
 10 31  1  0  0  0  0
 11 12  1  0  0  0  0
 11 30  1  0  0  0  0
 11 33  1  0  0  0  0
 12 13  1  0  0  0  0
 12 14  1  0  0  0  0
 12 35  1  0  0  0  0
 13 15  1  0  0  0  0
 13 34  1  0  0  0  0
 13 37  1  0  0  0  0
 14 32  1  0  0  0  0
 14 38  1  0  0  0  0
 14 39  1  0  0  0  0
 15 36  1  0  0  0  0
 15 40  1  0  0  0  0
 15 41  1  0  0  0  0
M  END
$$$$
farnesyl_sat.pdb_12
 OpenBabel07241819373D
VDW energy = 69.66
 47 46  0  0  0  0  0  0  0  0999 V2000
   -1.7100    9.4390    1.0900 C   0  0  0  0  0  0  0  0  0  0  0  0
   -1.6880    8.7310   -1.4210 C   0  0  0  0  0  0  0  0  0  0  0  0
   -1.5890    8.3130    0.0530 C   0  0  0  0  0  0  0  0  0  0  0  0
   -2.7120    7.2970    0.3300 C   0  0  0  0  0  0  0  0  0  0  0  0
   -2.2234    5.8804   -0.0250 C   0  0  0  0  0  0  0  0  0  0  0  0
   -3.3469    4.8646    0.2523 C   0  0  0  0  0  0  0  0  0  0  0  0
   -2.7416    3.5792    0.8465 C   0  0  0  0  0  0  0  0  0  0  0  0
   -3.8638    2.5619    1.1245 C   0  0  0  0  0  0  0  0  0  0  0  0
   -2.0136    3.9143    2.1619 C   0  0  0  0  0  0  0  0  0  0  0  0
   -1.3428    2.6438    2.7164 C   0  0  0  0  0  0  0  0  0  0  0  0
   -0.4497    3.0145    3.9156 C   0  0  0  0  0  0  0  0  0  0  0  0
   -0.9201    4.3528    4.5127 C   0  0  0  0  0  0  0  0  0  0  0  0
   -0.3694    4.4994    5.9432 C   0  0  0  0  0  0  0  0  0  0  0  0
   -0.4037    5.5145    3.6423 C   0  0  0  0  0  0  0  0  0  0  0  0
   -0.8398    5.8384    6.5408 C   0  0  0  0  0  0  0  0  0  0  0  0
   -2.9855    7.3343    1.3844 H   0  0  0  0  0  0  0  0  0  0  0  0
   -0.5820    7.9150    0.1740 H   0  0  0  0  0  0  0  0  0  0  0  0
   -4.0579    5.2915    0.9589 H   0  0  0  0  0  0  0  0  0  0  0  0
   -3.5829    7.5433   -0.2787 H   0  0  0  0  0  0  0  0  0  0  0  0
   -1.3510    5.6336    0.5804 H   0  0  0  0  0  0  0  0  0  0  0  0
   -1.9538    5.8440   -1.0807 H   0  0  0  0  0  0  0  0  0  0  0  0
   -4.8190    2.9773    0.8008 H   0  0  0  0  0  0  0  0  0  0  0  0
   -3.8595    4.6268   -0.6794 H   0  0  0  0  0  0  0  0  0  0  0  0
   -1.2550    4.6740    1.9759 H   0  0  0  0  0  0  0  0  0  0  0  0
   -2.0317    3.1514    0.1390 H   0  0  0  0  0  0  0  0  0  0  0  0
   -3.9040    2.3474    2.1926 H   0  0  0  0  0  0  0  0  0  0  0  0
   -3.6634    1.6413    0.5761 H   0  0  0  0  0  0  0  0  0  0  0  0
   -2.1092    1.9385    3.0387 H   0  0  0  0  0  0  0  0  0  0  0  0
   -2.7336    4.2903    2.8888 H   0  0  0  0  0  0  0  0  0  0  0  0
   -0.5168    2.2340    4.6731 H   0  0  0  0  0  0  0  0  0  0  0  0
   -0.7330    2.1855    1.9381 H   0  0  0  0  0  0  0  0  0  0  0  0
    0.1007    5.1134    2.7637 H   0  0  0  0  0  0  0  0  0  0  0  0
    0.5842    3.1087    3.5824 H   0  0  0  0  0  0  0  0  0  0  0  0
   -0.7346    3.6774    6.5594 H   0  0  0  0  0  0  0  0  0  0  0  0
   -2.0097    4.3764    4.5391 H   0  0  0  0  0  0  0  0  0  0  0  0
   -0.4683    6.6603    5.9281 H   0  0  0  0  0  0  0  0  0  0  0  0
    0.7200    4.4764    5.9167 H   0  0  0  0  0  0  0  0  0  0  0  0
    0.2953    6.1188    4.2196 H   0  0  0  0  0  0  0  0  0  0  0  0
   -1.2450    6.1329    3.3278 H   0  0  0  0  0  0  0  0  0  0  0  0
   -0.4546    5.9390    7.5555 H   0  0  0  0  0  0  0  0  0  0  0  0
   -1.9287    5.8642    6.5611 H   0  0  0  0  0  0  0  0  0  0  0  0
   -2.3410   10.2460    0.7170 H   0  0  0  0  0  0  0  0  0  0  0  0
   -2.1860    9.0690    2.0130 H   0  0  0  0  0  0  0  0  0  0  0  0
   -0.7190    9.8570    1.3180 H   0  0  0  0  0  0  0  0  0  0  0  0
   -2.3460    8.0200   -1.9300 H   0  0  0  0  0  0  0  0  0  0  0  0
   -2.0940    9.7190   -1.5390 H   0  0  0  0  0  0  0  0  0  0  0  0
   -0.7040    8.6980   -1.8730 H   0  0  0  0  0  0  0  0  0  0  0  0
  1 42  1  0  0  0  0
  1 43  1  0  0  0  0
  1 44  1  0  0  0  0
  1  3  1  0  0  0  0
  2 45  1  0  0  0  0
  2 46  1  0  0  0  0
  2 47  1  0  0  0  0
  2  3  1  0  0  0  0
  3  4  1  0  0  0  0
  3 17  1  0  0  0  0
  4  5  1  0  0  0  0
  4 16  1  0  0  0  0
  4 19  1  0  0  0  0
  5  6  1  0  0  0  0
  5 20  1  0  0  0  0
  5 21  1  0  0  0  0
  6  7  1  0  0  0  0
  6 18  1  0  0  0  0
  6 23  1  0  0  0  0
  7  8  1  0  0  0  0
  7  9  1  0  0  0  0
  7 25  1  0  0  0  0
  8 22  1  0  0  0  0
  8 26  1  0  0  0  0
  8 27  1  0  0  0  0
  9 10  1  0  0  0  0
  9 24  1  0  0  0  0
  9 29  1  0  0  0  0
 10 11  1  0  0  0  0
 10 28  1  0  0  0  0
 10 31  1  0  0  0  0
 11 12  1  0  0  0  0
 11 30  1  0  0  0  0
 11 33  1  0  0  0  0
 12 13  1  0  0  0  0
 12 14  1  0  0  0  0
 12 35  1  0  0  0  0
 13 15  1  0  0  0  0
 13 34  1  0  0  0  0
 13 37  1  0  0  0  0
 14 32  1  0  0  0  0
 14 38  1  0  0  0  0
 14 39  1  0  0  0  0
 15 36  1  0  0  0  0
 15 40  1  0  0  0  0
 15 41  1  0  0  0  0
M  END
$$$$
farnesyl_sat.pdb_13
 OpenBabel07241819373D
VDW energy = 70.44
 47 46  0  0  0  0  0  0  0  0999 V2000
   -1.7100    9.4390    1.0900 C   0  0  0  0  0  0  0  0  0  0  0  0
   -1.6880    8.7310   -1.4210 C   0  0  0  0  0  0  0  0  0  0  0  0
   -1.5890    8.3130    0.0530 C   0  0  0  0  0  0  0  0  0  0  0  0
   -2.7120    7.2970    0.3300 C   0  0  0  0  0  0  0  0  0  0  0  0
   -3.8451    7.9836    1.1150 C   0  0  0  0  0  0  0  0  0  0  0  0
   -4.9680    6.9671    1.3918 C   0  0  0  0  0  0  0  0  0  0  0  0
   -6.3355    7.6590    1.2404 C   0  0  0  0  0  0  0  0  0  0  0  0
   -7.4600    6.6438    1.5169 C   0  0  0  0  0  0  0  0  0  0  0  0
   -6.4783    8.2075   -0.1919 C   0  0  0  0  0  0  0  0  0  0  0  0
   -7.8121    8.9663   -0.3213 C   0  0  0  0  0  0  0  0  0  0  0  0
   -7.8656    9.6851   -1.6827 C   0  0  0  0  0  0  0  0  0  0  0  0
   -9.1751   10.4867   -1.7899 C   0  0  0  0  0  0  0  0  0  0  0  0
   -9.2283   11.2051   -3.1508 C   0  0  0  0  0  0  0  0  0  0  0  0
  -10.3761    9.5293   -1.6676 C   0  0  0  0  0  0  0  0  0  0  0  0
  -10.5384   12.0072   -3.2583 C   0  0  0  0  0  0  0  0  0  0  0  0
   -3.1015    6.9175   -0.6145 H   0  0  0  0  0  0  0  0  0  0  0  0
   -0.5820    7.9150    0.1740 H   0  0  0  0  0  0  0  0  0  0  0  0
   -4.8971    6.1436    0.6819 H   0  0  0  0  0  0  0  0  0  0  0  0
   -2.3150    6.4679    0.9170 H   0  0  0  0  0  0  0  0  0  0  0  0
   -4.2411    8.8147    0.5310 H   0  0  0  0  0  0  0  0  0  0  0  0
   -3.4545    8.3593    2.0610 H   0  0  0  0  0  0  0  0  0  0  0  0
   -7.0226    5.6830    1.7909 H   0  0  0  0  0  0  0  0  0  0  0  0
   -4.8671    6.5817    2.4059 H   0  0  0  0  0  0  0  0  0  0  0  0
   -5.6526    8.8849   -0.4072 H   0  0  0  0  0  0  0  0  0  0  0  0
   -6.4069    8.4816    1.9515 H   0  0  0  0  0  0  0  0  0  0  0  0
   -8.0698    6.5234    0.6211 H   0  0  0  0  0  0  0  0  0  0  0  0
   -8.0831    7.0059    2.3347 H   0  0  0  0  0  0  0  0  0  0  0  0
   -8.6405    8.2611   -0.2502 H   0  0  0  0  0  0  0  0  0  0  0  0
   -6.4628    7.3791   -0.9002 H   0  0  0  0  0  0  0  0  0  0  0  0
   -7.0161   10.3620   -1.7694 H   0  0  0  0  0  0  0  0  0  0  0  0
   -7.8917    9.7007    0.4799 H   0  0  0  0  0  0  0  0  0  0  0  0
  -10.0178    8.5235   -1.4499 H   0  0  0  0  0  0  0  0  0  0  0  0
   -7.8246    8.9472   -2.4843 H   0  0  0  0  0  0  0  0  0  0  0  0
   -8.3785   11.8827   -3.2377 H   0  0  0  0  0  0  0  0  0  0  0  0
   -9.2167   11.2243   -0.9883 H   0  0  0  0  0  0  0  0  0  0  0  0
  -11.3878   11.3280   -3.1785 H   0  0  0  0  0  0  0  0  0  0  0  0
   -9.1872   10.4676   -3.9523 H   0  0  0  0  0  0  0  0  0  0  0  0
  -10.9330    9.5230   -2.6040 H   0  0  0  0  0  0  0  0  0  0  0  0
  -11.0268    9.8661   -0.8599 H   0  0  0  0  0  0  0  0  0  0  0  0
  -10.5729   12.5203   -4.2193 H   0  0  0  0  0  0  0  0  0  0  0  0
  -10.5826   12.7398   -2.4533 H   0  0  0  0  0  0  0  0  0  0  0  0
   -2.3410   10.2460    0.7170 H   0  0  0  0  0  0  0  0  0  0  0  0
   -2.1860    9.0690    2.0130 H   0  0  0  0  0  0  0  0  0  0  0  0
   -0.7190    9.8570    1.3180 H   0  0  0  0  0  0  0  0  0  0  0  0
   -2.3460    8.0200   -1.9300 H   0  0  0  0  0  0  0  0  0  0  0  0
   -2.0940    9.7190   -1.5390 H   0  0  0  0  0  0  0  0  0  0  0  0
   -0.7040    8.6980   -1.8730 H   0  0  0  0  0  0  0  0  0  0  0  0
  1 42  1  0  0  0  0
  1 43  1  0  0  0  0
  1 44  1  0  0  0  0
  1  3  1  0  0  0  0
  2 45  1  0  0  0  0
  2 46  1  0  0  0  0
  2 47  1  0  0  0  0
  2  3  1  0  0  0  0
  3  4  1  0  0  0  0
  3 17  1  0  0  0  0
  4  5  1  0  0  0  0
  4 16  1  0  0  0  0
  4 19  1  0  0  0  0
  5  6  1  0  0  0  0
  5 20  1  0  0  0  0
  5 21  1  0  0  0  0
  6  7  1  0  0  0  0
  6 18  1  0  0  0  0
  6 23  1  0  0  0  0
  7  8  1  0  0  0  0
  7  9  1  0  0  0  0
  7 25  1  0  0  0  0
  8 22  1  0  0  0  0
  8 26  1  0  0  0  0
  8 27  1  0  0  0  0
  9 10  1  0  0  0  0
  9 24  1  0  0  0  0
  9 29  1  0  0  0  0
 10 11  1  0  0  0  0
 10 28  1  0  0  0  0
 10 31  1  0  0  0  0
 11 12  1  0  0  0  0
 11 30  1  0  0  0  0
 11 33  1  0  0  0  0
 12 13  1  0  0  0  0
 12 14  1  0  0  0  0
 12 35  1  0  0  0  0
 13 15  1  0  0  0  0
 13 34  1  0  0  0  0
 13 37  1  0  0  0  0
 14 32  1  0  0  0  0
 14 38  1  0  0  0  0
 14 39  1  0  0  0  0
 15 36  1  0  0  0  0
 15 40  1  0  0  0  0
 15 41  1  0  0  0  0
M  END
$$$$
farnesyl_sat.pdb_14
 OpenBabel07241819373D
VDW energy = 72.86
 47 46  0  0  0  0  0  0  0  0999 V2000
   -1.7100    9.4390    1.0900 C   0  0  0  0  0  0  0  0  0  0  0  0
   -1.6880    8.7310   -1.4210 C   0  0  0  0  0  0  0  0  0  0  0  0
   -1.5890    8.3130    0.0530 C   0  0  0  0  0  0  0  0  0  0  0  0
   -2.7120    7.2970    0.3300 C   0  0  0  0  0  0  0  0  0  0  0  0
   -2.2234    5.8804   -0.0250 C   0  0  0  0  0  0  0  0  0  0  0  0
   -2.2112    5.7092   -1.5551 C   0  0  0  0  0  0  0  0  0  0  0  0
   -2.6879    4.2900   -1.9166 C   0  0  0  0  0  0  0  0  0  0  0  0
   -2.6764    4.1168   -3.4468 C   0  0  0  0  0  0  0  0  0  0  0  0
   -4.1181    4.0773   -1.3855 C   0  0  0  0  0  0  0  0  0  0  0  0
   -4.7996    5.4432   -1.1825 C   0  0  0  0  0  0  0  0  0  0  0  0
   -6.2883    5.2312   -0.8478 C   0  0  0  0  0  0  0  0  0  0  0  0
   -6.9812    6.5972   -0.6976 C   0  0  0  0  0  0  0  0  0  0  0  0
   -8.5048    6.4184   -0.8305 C   0  0  0  0  0  0  0  0  0  0  0  0
   -6.6529    7.1915    0.6856 C   0  0  0  0  0  0  0  0  0  0  0  0
   -9.1953    7.7904   -0.7213 C   0  0  0  0  0  0  0  0  0  0  0  0
   -2.9855    7.3343    1.3844 H   0  0  0  0  0  0  0  0  0  0  0  0
   -0.5820    7.9150    0.1740 H   0  0  0  0  0  0  0  0  0  0  0  0
   -2.8770    6.4425   -2.0092 H   0  0  0  0  0  0  0  0  0  0  0  0
   -3.5829    7.5433   -0.2787 H   0  0  0  0  0  0  0  0  0  0  0  0
   -2.8918    5.1426    0.4194 H   0  0  0  0  0  0  0  0  0  0  0  0
   -1.2151    5.7367    0.3641 H   0  0  0  0  0  0  0  0  0  0  0  0
   -2.2983    5.0277   -3.9126 H   0  0  0  0  0  0  0  0  0  0  0  0
   -1.1987    5.8576   -1.9291 H   0  0  0  0  0  0  0  0  0  0  0  0
   -4.6898    3.4890   -2.1025 H   0  0  0  0  0  0  0  0  0  0  0  0
   -2.0211    3.5567   -1.4639 H   0  0  0  0  0  0  0  0  0  0  0  0
   -3.6899    3.9224   -3.7985 H   0  0  0  0  0  0  0  0  0  0  0  0
   -2.0324    3.2784   -3.7125 H   0  0  0  0  0  0  0  0  0  0  0  0
   -4.3150    5.9735   -0.3624 H   0  0  0  0  0  0  0  0  0  0  0  0
   -4.0759    3.5485   -0.4332 H   0  0  0  0  0  0  0  0  0  0  0  0
   -6.7640    4.6678   -1.6502 H   0  0  0  0  0  0  0  0  0  0  0  0
   -4.7134    6.0317   -2.0956 H   0  0  0  0  0  0  0  0  0  0  0  0
   -5.9405    6.5457    1.1982 H   0  0  0  0  0  0  0  0  0  0  0  0
   -6.3745    4.6754    0.0862 H   0  0  0  0  0  0  0  0  0  0  0  0
   -8.7353    5.9707   -1.7976 H   0  0  0  0  0  0  0  0  0  0  0  0
   -6.6259    7.2729   -1.4758 H   0  0  0  0  0  0  0  0  0  0  0  0
   -8.9702    8.2343    0.2489 H   0  0  0  0  0  0  0  0  0  0  0  0
   -8.8644    5.7665   -0.0344 H   0  0  0  0  0  0  0  0  0  0  0  0
   -7.5660    7.2671    1.2750 H   0  0  0  0  0  0  0  0  0  0  0  0
   -6.2184    8.1837    0.5594 H   0  0  0  0  0  0  0  0  0  0  0  0
  -10.2733    7.6640   -0.8214 H   0  0  0  0  0  0  0  0  0  0  0  0
   -8.8310    8.4441   -1.5129 H   0  0  0  0  0  0  0  0  0  0  0  0
   -2.3410   10.2460    0.7170 H   0  0  0  0  0  0  0  0  0  0  0  0
   -2.1860    9.0690    2.0130 H   0  0  0  0  0  0  0  0  0  0  0  0
   -0.7190    9.8570    1.3180 H   0  0  0  0  0  0  0  0  0  0  0  0
   -2.3460    8.0200   -1.9300 H   0  0  0  0  0  0  0  0  0  0  0  0
   -2.0940    9.7190   -1.5390 H   0  0  0  0  0  0  0  0  0  0  0  0
   -0.7040    8.6980   -1.8730 H   0  0  0  0  0  0  0  0  0  0  0  0
  1 42  1  0  0  0  0
  1 43  1  0  0  0  0
  1 44  1  0  0  0  0
  1  3  1  0  0  0  0
  2 45  1  0  0  0  0
  2 46  1  0  0  0  0
  2 47  1  0  0  0  0
  2  3  1  0  0  0  0
  3  4  1  0  0  0  0
  3 17  1  0  0  0  0
  4  5  1  0  0  0  0
  4 16  1  0  0  0  0
  4 19  1  0  0  0  0
  5  6  1  0  0  0  0
  5 20  1  0  0  0  0
  5 21  1  0  0  0  0
  6  7  1  0  0  0  0
  6 18  1  0  0  0  0
  6 23  1  0  0  0  0
  7  8  1  0  0  0  0
  7  9  1  0  0  0  0
  7 25  1  0  0  0  0
  8 22  1  0  0  0  0
  8 26  1  0  0  0  0
  8 27  1  0  0  0  0
  9 10  1  0  0  0  0
  9 24  1  0  0  0  0
  9 29  1  0  0  0  0
 10 11  1  0  0  0  0
 10 28  1  0  0  0  0
 10 31  1  0  0  0  0
 11 12  1  0  0  0  0
 11 30  1  0  0  0  0
 11 33  1  0  0  0  0
 12 13  1  0  0  0  0
 12 14  1  0  0  0  0
 12 35  1  0  0  0  0
 13 15  1  0  0  0  0
 13 34  1  0  0  0  0
 13 37  1  0  0  0  0
 14 32  1  0  0  0  0
 14 38  1  0  0  0  0
 14 39  1  0  0  0  0
 15 36  1  0  0  0  0
 15 40  1  0  0  0  0
 15 41  1  0  0  0  0
M  END
$$$$
farnesyl_sat.pdb_15
 OpenBabel07241819373D
VDW energy = 72.89
 47 46  0  0  0  0  0  0  0  0999 V2000
   -1.7100    9.4390    1.0900 C   0  0  0  0  0  0  0  0  0  0  0  0
   -1.6880    8.7310   -1.4210 C   0  0  0  0  0  0  0  0  0  0  0  0
   -1.5890    8.3130    0.0530 C   0  0  0  0  0  0  0  0  0  0  0  0
   -2.7120    7.2970    0.3300 C   0  0  0  0  0  0  0  0  0  0  0  0
   -2.2234    5.8804   -0.0250 C   0  0  0  0  0  0  0  0  0  0  0  0
   -3.3469    4.8646    0.2523 C   0  0  0  0  0  0  0  0  0  0  0  0
   -2.7416    3.5792    0.8465 C   0  0  0  0  0  0  0  0  0  0  0  0
   -3.8638    2.5619    1.1245 C   0  0  0  0  0  0  0  0  0  0  0  0
   -2.0136    3.9143    2.1619 C   0  0  0  0  0  0  0  0  0  0  0  0
   -1.3428    2.6438    2.7164 C   0  0  0  0  0  0  0  0  0  0  0  0
   -0.4497    3.0145    3.9156 C   0  0  0  0  0  0  0  0  0  0  0  0
   -0.0723    4.5044    3.8345 C   0  0  0  0  0  0  0  0  0  0  0  0
    0.4032    4.9903    5.2161 C   0  0  0  0  0  0  0  0  0  0  0  0
    1.0597    4.6933    2.8064 C   0  0  0  0  0  0  0  0  0  0  0  0
    0.8745    3.7853    6.0511 C   0  0  0  0  0  0  0  0  0  0  0  0
   -2.9855    7.3343    1.3844 H   0  0  0  0  0  0  0  0  0  0  0  0
   -0.5820    7.9150    0.1740 H   0  0  0  0  0  0  0  0  0  0  0  0
   -4.0579    5.2915    0.9589 H   0  0  0  0  0  0  0  0  0  0  0  0
   -3.5829    7.5433   -0.2787 H   0  0  0  0  0  0  0  0  0  0  0  0
   -1.3510    5.6336    0.5804 H   0  0  0  0  0  0  0  0  0  0  0  0
   -1.9538    5.8440   -1.0807 H   0  0  0  0  0  0  0  0  0  0  0  0
   -4.8190    2.9773    0.8008 H   0  0  0  0  0  0  0  0  0  0  0  0
   -3.8595    4.6268   -0.6794 H   0  0  0  0  0  0  0  0  0  0  0  0
   -1.2550    4.6740    1.9759 H   0  0  0  0  0  0  0  0  0  0  0  0
   -2.0317    3.1514    0.1390 H   0  0  0  0  0  0  0  0  0  0  0  0
   -3.9040    2.3474    2.1926 H   0  0  0  0  0  0  0  0  0  0  0  0
   -3.6634    1.6413    0.5761 H   0  0  0  0  0  0  0  0  0  0  0  0
   -2.1092    1.9385    3.0387 H   0  0  0  0  0  0  0  0  0  0  0  0
   -2.7336    4.2903    2.8888 H   0  0  0  0  0  0  0  0  0  0  0  0
   -0.9902    2.8256    4.8427 H   0  0  0  0  0  0  0  0  0  0  0  0
   -0.7330    2.1855    1.9381 H   0  0  0  0  0  0  0  0  0  0  0  0
    1.2687    3.7421    2.3178 H   0  0  0  0  0  0  0  0  0  0  0  0
    0.4564    2.4084    3.8941 H   0  0  0  0  0  0  0  0  0  0  0  0
    1.2288    5.6914    5.0906 H   0  0  0  0  0  0  0  0  0  0  0  0
   -0.9426    5.0838    3.5258 H   0  0  0  0  0  0  0  0  0  0  0  0
    0.0464    3.0881    6.1823 H   0  0  0  0  0  0  0  0  0  0  0  0
   -0.4200    5.4878    5.7288 H   0  0  0  0  0  0  0  0  0  0  0  0
    1.9565    5.0472    3.3138 H   0  0  0  0  0  0  0  0  0  0  0  0
    0.7517    5.4257    2.0594 H   0  0  0  0  0  0  0  0  0  0  0  0
    1.2165    4.1305    7.0268 H   0  0  0  0  0  0  0  0  0  0  0  0
    1.6928    3.2842    5.5354 H   0  0  0  0  0  0  0  0  0  0  0  0
   -2.3410   10.2460    0.7170 H   0  0  0  0  0  0  0  0  0  0  0  0
   -2.1860    9.0690    2.0130 H   0  0  0  0  0  0  0  0  0  0  0  0
   -0.7190    9.8570    1.3180 H   0  0  0  0  0  0  0  0  0  0  0  0
   -2.3460    8.0200   -1.9300 H   0  0  0  0  0  0  0  0  0  0  0  0
   -2.0940    9.7190   -1.5390 H   0  0  0  0  0  0  0  0  0  0  0  0
   -0.7040    8.6980   -1.8730 H   0  0  0  0  0  0  0  0  0  0  0  0
  1 42  1  0  0  0  0
  1 43  1  0  0  0  0
  1 44  1  0  0  0  0
  1  3  1  0  0  0  0
  2 45  1  0  0  0  0
  2 46  1  0  0  0  0
  2 47  1  0  0  0  0
  2  3  1  0  0  0  0
  3  4  1  0  0  0  0
  3 17  1  0  0  0  0
  4  5  1  0  0  0  0
  4 16  1  0  0  0  0
  4 19  1  0  0  0  0
  5  6  1  0  0  0  0
  5 20  1  0  0  0  0
  5 21  1  0  0  0  0
  6  7  1  0  0  0  0
  6 18  1  0  0  0  0
  6 23  1  0  0  0  0
  7  8  1  0  0  0  0
  7  9  1  0  0  0  0
  7 25  1  0  0  0  0
  8 22  1  0  0  0  0
  8 26  1  0  0  0  0
  8 27  1  0  0  0  0
  9 10  1  0  0  0  0
  9 24  1  0  0  0  0
  9 29  1  0  0  0  0
 10 11  1  0  0  0  0
 10 28  1  0  0  0  0
 10 31  1  0  0  0  0
 11 12  1  0  0  0  0
 11 30  1  0  0  0  0
 11 33  1  0  0  0  0
 12 13  1  0  0  0  0
 12 14  1  0  0  0  0
 12 35  1  0  0  0  0
 13 15  1  0  0  0  0
 13 34  1  0  0  0  0
 13 37  1  0  0  0  0
 14 32  1  0  0  0  0
 14 38  1  0  0  0  0
 14 39  1  0  0  0  0
 15 36  1  0  0  0  0
 15 40  1  0  0  0  0
 15 41  1  0  0  0  0
M  END
$$$$
farnesyl_sat.pdb_16
 OpenBabel07241819373D
VDW energy = 73.52
 47 46  0  0  0  0  0  0  0  0999 V2000
   -1.7100    9.4390    1.0900 C   0  0  0  0  0  0  0  0  0  0  0  0
   -1.6880    8.7310   -1.4210 C   0  0  0  0  0  0  0  0  0  0  0  0
   -1.5890    8.3130    0.0530 C   0  0  0  0  0  0  0  0  0  0  0  0
   -2.7120    7.2970    0.3300 C   0  0  0  0  0  0  0  0  0  0  0  0
   -3.1798    7.4326    1.7909 C   0  0  0  0  0  0  0  0  0  0  0  0
   -4.3030    6.4163    2.0674 C   0  0  0  0  0  0  0  0  0  0  0  0
   -5.3698    7.0633    2.9703 C   0  0  0  0  0  0  0  0  0  0  0  0
   -6.4942    6.0482    3.2480 C   0  0  0  0  0  0  0  0  0  0  0  0
   -5.9568    8.3013    2.2663 C   0  0  0  0  0  0  0  0  0  0  0  0
   -6.9675    8.9928    3.2001 C   0  0  0  0  0  0  0  0  0  0  0  0
   -7.4021   10.3361    2.5840 C   0  0  0  0  0  0  0  0  0  0  0  0
   -8.3711   11.0517    3.5420 C   0  0  0  0  0  0  0  0  0  0  0  0
   -8.8054   12.3944    2.9260 C   0  0  0  0  0  0  0  0  0  0  0  0
   -9.6119   10.1681    3.7739 C   0  0  0  0  0  0  0  0  0  0  0  0
   -9.7748   13.1105    3.8844 C   0  0  0  0  0  0  0  0  0  0  0  0
   -3.5501    7.4882   -0.3400 H   0  0  0  0  0  0  0  0  0  0  0  0
   -0.5820    7.9150    0.1740 H   0  0  0  0  0  0  0  0  0  0  0  0
   -4.7597    6.1127    1.1259 H   0  0  0  0  0  0  0  0  0  0  0  0
   -2.3373    6.2866    0.1616 H   0  0  0  0  0  0  0  0  0  0  0  0
   -3.5519    8.4430    1.9619 H   0  0  0  0  0  0  0  0  0  0  0  0
   -2.3412    7.2373    2.4596 H   0  0  0  0  0  0  0  0  0  0  0  0
   -6.2519    5.0981    2.7702 H   0  0  0  0  0  0  0  0  0  0  0  0
   -3.8868    5.5422    2.5674 H   0  0  0  0  0  0  0  0  0  0  0  0
   -5.1544    8.9962    2.0210 H   0  0  0  0  0  0  0  0  0  0  0  0
   -4.9134    7.3654    3.9125 H   0  0  0  0  0  0  0  0  0  0  0  0
   -7.4342    6.4277    2.8468 H   0  0  0  0  0  0  0  0  0  0  0  0
   -6.5916    5.8996    4.3235 H   0  0  0  0  0  0  0  0  0  0  0  0
   -7.8408    8.3529    3.3291 H   0  0  0  0  0  0  0  0  0  0  0  0
   -6.4620    7.9921    1.3512 H   0  0  0  0  0  0  0  0  0  0  0  0
   -6.5246   10.9609    2.4197 H   0  0  0  0  0  0  0  0  0  0  0  0
   -6.5031    9.1718    4.1696 H   0  0  0  0  0  0  0  0  0  0  0  0
   -9.4739    9.2101    3.2734 H   0  0  0  0  0  0  0  0  0  0  0  0
   -7.9011   10.1539    1.6318 H   0  0  0  0  0  0  0  0  0  0  0  0
   -7.9275   13.0199    2.7617 H   0  0  0  0  0  0  0  0  0  0  0  0
   -7.8728   11.2336    4.4944 H   0  0  0  0  0  0  0  0  0  0  0  0
  -10.6557   12.4876    4.0426 H   0  0  0  0  0  0  0  0  0  0  0  0
   -9.3040   12.2124    1.9741 H   0  0  0  0  0  0  0  0  0  0  0  0
  -10.4933   10.6660    3.3713 H   0  0  0  0  0  0  0  0  0  0  0  0
   -9.7442   10.0035    4.8438 H   0  0  0  0  0  0  0  0  0  0  0  0
  -10.0773   14.0636    3.4506 H   0  0  0  0  0  0  0  0  0  0  0  0
   -9.2786   13.2864    4.8381 H   0  0  0  0  0  0  0  0  0  0  0  0
   -2.3410   10.2460    0.7170 H   0  0  0  0  0  0  0  0  0  0  0  0
   -2.1860    9.0690    2.0130 H   0  0  0  0  0  0  0  0  0  0  0  0
   -0.7190    9.8570    1.3180 H   0  0  0  0  0  0  0  0  0  0  0  0
   -2.3460    8.0200   -1.9300 H   0  0  0  0  0  0  0  0  0  0  0  0
   -2.0940    9.7190   -1.5390 H   0  0  0  0  0  0  0  0  0  0  0  0
   -0.7040    8.6980   -1.8730 H   0  0  0  0  0  0  0  0  0  0  0  0
  1 42  1  0  0  0  0
  1 43  1  0  0  0  0
  1 44  1  0  0  0  0
  1  3  1  0  0  0  0
  2 45  1  0  0  0  0
  2 46  1  0  0  0  0
  2 47  1  0  0  0  0
  2  3  1  0  0  0  0
  3  4  1  0  0  0  0
  3 17  1  0  0  0  0
  4  5  1  0  0  0  0
  4 16  1  0  0  0  0
  4 19  1  0  0  0  0
  5  6  1  0  0  0  0
  5 20  1  0  0  0  0
  5 21  1  0  0  0  0
  6  7  1  0  0  0  0
  6 18  1  0  0  0  0
  6 23  1  0  0  0  0
  7  8  1  0  0  0  0
  7  9  1  0  0  0  0
  7 25  1  0  0  0  0
  8 22  1  0  0  0  0
  8 26  1  0  0  0  0
  8 27  1  0  0  0  0
  9 10  1  0  0  0  0
  9 24  1  0  0  0  0
  9 29  1  0  0  0  0
 10 11  1  0  0  0  0
 10 28  1  0  0  0  0
 10 31  1  0  0  0  0
 11 12  1  0  0  0  0
 11 30  1  0  0  0  0
 11 33  1  0  0  0  0
 12 13  1  0  0  0  0
 12 14  1  0  0  0  0
 12 35  1  0  0  0  0
 13 15  1  0  0  0  0
 13 34  1  0  0  0  0
 13 37  1  0  0  0  0
 14 32  1  0  0  0  0
 14 38  1  0  0  0  0
 14 39  1  0  0  0  0
 15 36  1  0  0  0  0
 15 40  1  0  0  0  0
 15 41  1  0  0  0  0
M  END
$$$$
farnesyl_sat.pdb_17
 OpenBabel07241819373D
VDW energy = 74.23
 47 46  0  0  0  0  0  0  0  0999 V2000
   -1.7100    9.4390    1.0900 C   0  0  0  0  0  0  0  0  0  0  0  0
   -1.6880    8.7310   -1.4210 C   0  0  0  0  0  0  0  0  0  0  0  0
   -1.5890    8.3130    0.0530 C   0  0  0  0  0  0  0  0  0  0  0  0
   -2.7120    7.2970    0.3300 C   0  0  0  0  0  0  0  0  0  0  0  0
   -2.2234    5.8804   -0.0250 C   0  0  0  0  0  0  0  0  0  0  0  0
   -3.3469    4.8646    0.2523 C   0  0  0  0  0  0  0  0  0  0  0  0
   -2.7416    3.5792    0.8465 C   0  0  0  0  0  0  0  0  0  0  0  0
   -3.8638    2.5619    1.1245 C   0  0  0  0  0  0  0  0  0  0  0  0
   -2.0136    3.9143    2.1619 C   0  0  0  0  0  0  0  0  0  0  0  0
   -1.3428    2.6438    2.7164 C   0  0  0  0  0  0  0  0  0  0  0  0
   -1.1295    1.6334    1.5734 C   0  0  0  0  0  0  0  0  0  0  0  0
   -0.5081    0.3430    2.1369 C   0  0  0  0  0  0  0  0  0  0  0  0
    0.1962    0.6514    3.4710 C   0  0  0  0  0  0  0  0  0  0  0  0
   -1.6158   -0.7021    2.3708 C   0  0  0  0  0  0  0  0  0  0  0  0
    0.8180   -0.6395    4.0350 C   0  0  0  0  0  0  0  0  0  0  0  0
   -2.9855    7.3343    1.3844 H   0  0  0  0  0  0  0  0  0  0  0  0
   -0.5820    7.9150    0.1740 H   0  0  0  0  0  0  0  0  0  0  0  0
   -4.0579    5.2915    0.9589 H   0  0  0  0  0  0  0  0  0  0  0  0
   -3.5829    7.5433   -0.2787 H   0  0  0  0  0  0  0  0  0  0  0  0
   -1.3510    5.6336    0.5804 H   0  0  0  0  0  0  0  0  0  0  0  0
   -1.9538    5.8440   -1.0807 H   0  0  0  0  0  0  0  0  0  0  0  0
   -4.8190    2.9773    0.8008 H   0  0  0  0  0  0  0  0  0  0  0  0
   -3.8595    4.6268   -0.6794 H   0  0  0  0  0  0  0  0  0  0  0  0
   -1.2550    4.6740    1.9759 H   0  0  0  0  0  0  0  0  0  0  0  0
   -2.0317    3.1514    0.1390 H   0  0  0  0  0  0  0  0  0  0  0  0
   -3.9040    2.3474    2.1926 H   0  0  0  0  0  0  0  0  0  0  0  0
   -3.6634    1.6413    0.5761 H   0  0  0  0  0  0  0  0  0  0  0  0
   -0.3795    2.9031    3.1563 H   0  0  0  0  0  0  0  0  0  0  0  0
   -2.7336    4.2903    2.8888 H   0  0  0  0  0  0  0  0  0  0  0  0
   -2.0879    1.4034    1.1087 H   0  0  0  0  0  0  0  0  0  0  0  0
   -1.9815    2.1989    3.4792 H   0  0  0  0  0  0  0  0  0  0  0  0
   -2.5652   -0.3130    2.0041 H   0  0  0  0  0  0  0  0  0  0  0  0
   -0.4595    2.0642    0.8288 H   0  0  0  0  0  0  0  0  0  0  0  0
    0.9801    1.3910    3.3058 H   0  0  0  0  0  0  0  0  0  0  0  0
    0.2181   -0.0516    1.4259 H   0  0  0  0  0  0  0  0  0  0  0  0
    0.0326   -1.3762    4.2067 H   0  0  0  0  0  0  0  0  0  0  0  0
   -0.5299    1.0455    4.1819 H   0  0  0  0  0  0  0  0  0  0  0  0
   -1.6962   -0.9146    3.4363 H   0  0  0  0  0  0  0  0  0  0  0  0
   -1.3675   -1.6189    1.8351 H   0  0  0  0  0  0  0  0  0  0  0  0
    1.3214   -0.4195    4.9764 H   0  0  0  0  0  0  0  0  0  0  0  0
    1.5388   -1.0370    3.3215 H   0  0  0  0  0  0  0  0  0  0  0  0
   -2.3410   10.2460    0.7170 H   0  0  0  0  0  0  0  0  0  0  0  0
   -2.1860    9.0690    2.0130 H   0  0  0  0  0  0  0  0  0  0  0  0
   -0.7190    9.8570    1.3180 H   0  0  0  0  0  0  0  0  0  0  0  0
   -2.3460    8.0200   -1.9300 H   0  0  0  0  0  0  0  0  0  0  0  0
   -2.0940    9.7190   -1.5390 H   0  0  0  0  0  0  0  0  0  0  0  0
   -0.7040    8.6980   -1.8730 H   0  0  0  0  0  0  0  0  0  0  0  0
  1 42  1  0  0  0  0
  1 43  1  0  0  0  0
  1 44  1  0  0  0  0
  1  3  1  0  0  0  0
  2 45  1  0  0  0  0
  2 46  1  0  0  0  0
  2 47  1  0  0  0  0
  2  3  1  0  0  0  0
  3  4  1  0  0  0  0
  3 17  1  0  0  0  0
  4  5  1  0  0  0  0
  4 16  1  0  0  0  0
  4 19  1  0  0  0  0
  5  6  1  0  0  0  0
  5 20  1  0  0  0  0
  5 21  1  0  0  0  0
  6  7  1  0  0  0  0
  6 18  1  0  0  0  0
  6 23  1  0  0  0  0
  7  8  1  0  0  0  0
  7  9  1  0  0  0  0
  7 25  1  0  0  0  0
  8 22  1  0  0  0  0
  8 26  1  0  0  0  0
  8 27  1  0  0  0  0
  9 10  1  0  0  0  0
  9 24  1  0  0  0  0
  9 29  1  0  0  0  0
 10 11  1  0  0  0  0
 10 28  1  0  0  0  0
 10 31  1  0  0  0  0
 11 12  1  0  0  0  0
 11 30  1  0  0  0  0
 11 33  1  0  0  0  0
 12 13  1  0  0  0  0
 12 14  1  0  0  0  0
 12 35  1  0  0  0  0
 13 15  1  0  0  0  0
 13 34  1  0  0  0  0
 13 37  1  0  0  0  0
 14 32  1  0  0  0  0
 14 38  1  0  0  0  0
 14 39  1  0  0  0  0
 15 36  1  0  0  0  0
 15 40  1  0  0  0  0
 15 41  1  0  0  0  0
M  END
$$$$
farnesyl_sat.pdb_18
 OpenBabel07241819373D
VDW energy = 74.45
 47 46  0  0  0  0  0  0  0  0999 V2000
   -1.7100    9.4390    1.0900 C   0  0  0  0  0  0  0  0  0  0  0  0
   -1.6880    8.7310   -1.4210 C   0  0  0  0  0  0  0  0  0  0  0  0
   -1.5890    8.3130    0.0530 C   0  0  0  0  0  0  0  0  0  0  0  0
   -2.7120    7.2970    0.3300 C   0  0  0  0  0  0  0  0  0  0  0  0
   -2.2234    5.8804   -0.0250 C   0  0  0  0  0  0  0  0  0  0  0  0
   -3.3469    4.8646    0.2523 C   0  0  0  0  0  0  0  0  0  0  0  0
   -2.7416    3.5792    0.8465 C   0  0  0  0  0  0  0  0  0  0  0  0
   -3.8638    2.5619    1.1245 C   0  0  0  0  0  0  0  0  0  0  0  0
   -2.0136    3.9143    2.1619 C   0  0  0  0  0  0  0  0  0  0  0  0
   -1.3428    2.6438    2.7164 C   0  0  0  0  0  0  0  0  0  0  0  0
   -1.1295    1.6334    1.5734 C   0  0  0  0  0  0  0  0  0  0  0  0
   -0.5081    0.3430    2.1369 C   0  0  0  0  0  0  0  0  0  0  0  0
   -0.8072    0.2438    3.6441 C   0  0  0  0  0  0  0  0  0  0  0  0
   -1.1097   -0.8767    1.4128 C   0  0  0  0  0  0  0  0  0  0  0  0
   -0.1856   -1.0472    4.2081 C   0  0  0  0  0  0  0  0  0  0  0  0
   -2.9855    7.3343    1.3844 H   0  0  0  0  0  0  0  0  0  0  0  0
   -0.5820    7.9150    0.1740 H   0  0  0  0  0  0  0  0  0  0  0  0
   -4.0579    5.2915    0.9589 H   0  0  0  0  0  0  0  0  0  0  0  0
   -3.5829    7.5433   -0.2787 H   0  0  0  0  0  0  0  0  0  0  0  0
   -1.3510    5.6336    0.5804 H   0  0  0  0  0  0  0  0  0  0  0  0
   -1.9538    5.8440   -1.0807 H   0  0  0  0  0  0  0  0  0  0  0  0
   -4.8190    2.9773    0.8008 H   0  0  0  0  0  0  0  0  0  0  0  0
   -3.8595    4.6268   -0.6794 H   0  0  0  0  0  0  0  0  0  0  0  0
   -1.2550    4.6740    1.9759 H   0  0  0  0  0  0  0  0  0  0  0  0
   -2.0317    3.1514    0.1390 H   0  0  0  0  0  0  0  0  0  0  0  0
   -3.9040    2.3474    2.1926 H   0  0  0  0  0  0  0  0  0  0  0  0
   -3.6634    1.6413    0.5761 H   0  0  0  0  0  0  0  0  0  0  0  0
   -0.3795    2.9031    3.1563 H   0  0  0  0  0  0  0  0  0  0  0  0
   -2.7336    4.2903    2.8888 H   0  0  0  0  0  0  0  0  0  0  0  0
   -2.0879    1.4034    1.1087 H   0  0  0  0  0  0  0  0  0  0  0  0
   -1.9815    2.1989    3.4792 H   0  0  0  0  0  0  0  0  0  0  0  0
   -1.7698   -0.5364    0.6155 H   0  0  0  0  0  0  0  0  0  0  0  0
   -0.4595    2.0642    0.8288 H   0  0  0  0  0  0  0  0  0  0  0  0
   -0.3817    1.1069    4.1568 H   0  0  0  0  0  0  0  0  0  0  0  0
    0.5708    0.3608    1.9814 H   0  0  0  0  0  0  0  0  0  0  0  0
   -0.6168   -1.9102    3.6999 H   0  0  0  0  0  0  0  0  0  0  0  0
   -1.8859    0.2255    3.7994 H   0  0  0  0  0  0  0  0  0  0  0  0
   -1.6760   -1.4784    2.1229 H   0  0  0  0  0  0  0  0  0  0  0  0
   -0.3056   -1.4779    0.9871 H   0  0  0  0  0  0  0  0  0  0  0  0
   -0.3926   -1.1140    5.2762 H   0  0  0  0  0  0  0  0  0  0  0  0
    0.8916   -1.0319    4.0468 H   0  0  0  0  0  0  0  0  0  0  0  0
   -2.3410   10.2460    0.7170 H   0  0  0  0  0  0  0  0  0  0  0  0
   -2.1860    9.0690    2.0130 H   0  0  0  0  0  0  0  0  0  0  0  0
   -0.7190    9.8570    1.3180 H   0  0  0  0  0  0  0  0  0  0  0  0
   -2.3460    8.0200   -1.9300 H   0  0  0  0  0  0  0  0  0  0  0  0
   -2.0940    9.7190   -1.5390 H   0  0  0  0  0  0  0  0  0  0  0  0
   -0.7040    8.6980   -1.8730 H   0  0  0  0  0  0  0  0  0  0  0  0
  1 42  1  0  0  0  0
  1 43  1  0  0  0  0
  1 44  1  0  0  0  0
  1  3  1  0  0  0  0
  2 45  1  0  0  0  0
  2 46  1  0  0  0  0
  2 47  1  0  0  0  0
  2  3  1  0  0  0  0
  3  4  1  0  0  0  0
  3 17  1  0  0  0  0
  4  5  1  0  0  0  0
  4 16  1  0  0  0  0
  4 19  1  0  0  0  0
  5  6  1  0  0  0  0
  5 20  1  0  0  0  0
  5 21  1  0  0  0  0
  6  7  1  0  0  0  0
  6 18  1  0  0  0  0
  6 23  1  0  0  0  0
  7  8  1  0  0  0  0
  7  9  1  0  0  0  0
  7 25  1  0  0  0  0
  8 22  1  0  0  0  0
  8 26  1  0  0  0  0
  8 27  1  0  0  0  0
  9 10  1  0  0  0  0
  9 24  1  0  0  0  0
  9 29  1  0  0  0  0
 10 11  1  0  0  0  0
 10 28  1  0  0  0  0
 10 31  1  0  0  0  0
 11 12  1  0  0  0  0
 11 30  1  0  0  0  0
 11 33  1  0  0  0  0
 12 13  1  0  0  0  0
 12 14  1  0  0  0  0
 12 35  1  0  0  0  0
 13 15  1  0  0  0  0
 13 34  1  0  0  0  0
 13 37  1  0  0  0  0
 14 32  1  0  0  0  0
 14 38  1  0  0  0  0
 14 39  1  0  0  0  0
 15 36  1  0  0  0  0
 15 40  1  0  0  0  0
 15 41  1  0  0  0  0
M  END
$$$$
farnesyl_sat.pdb_19
 OpenBabel07241819373D
VDW energy = 75.12
 47 46  0  0  0  0  0  0  0  0999 V2000
   -1.7100    9.4390    1.0900 C   0  0  0  0  0  0  0  0  0  0  0  0
   -1.6880    8.7310   -1.4210 C   0  0  0  0  0  0  0  0  0  0  0  0
   -1.5890    8.3130    0.0530 C   0  0  0  0  0  0  0  0  0  0  0  0
   -2.7120    7.2970    0.3300 C   0  0  0  0  0  0  0  0  0  0  0  0
   -2.2234    5.8804   -0.0250 C   0  0  0  0  0  0  0  0  0  0  0  0
   -3.3469    4.8646    0.2523 C   0  0  0  0  0  0  0  0  0  0  0  0
   -2.7416    3.5792    0.8465 C   0  0  0  0  0  0  0  0  0  0  0  0
   -3.8638    2.5619    1.1245 C   0  0  0  0  0  0  0  0  0  0  0  0
   -2.0136    3.9143    2.1619 C   0  0  0  0  0  0  0  0  0  0  0  0
   -1.3428    2.6438    2.7164 C   0  0  0  0  0  0  0  0  0  0  0  0
   -1.1295    1.6334    1.5734 C   0  0  0  0  0  0  0  0  0  0  0  0
   -0.5081    0.3430    2.1369 C   0  0  0  0  0  0  0  0  0  0  0  0
   -0.2950   -0.6668    0.9941 C   0  0  0  0  0  0  0  0  0  0  0  0
    0.8472    0.6686    2.7935 C   0  0  0  0  0  0  0  0  0  0  0  0
   -0.2318    0.0827   -0.3496 C   0  0  0  0  0  0  0  0  0  0  0  0
   -2.9855    7.3343    1.3844 H   0  0  0  0  0  0  0  0  0  0  0  0
   -0.5820    7.9150    0.1740 H   0  0  0  0  0  0  0  0  0  0  0  0
   -4.0579    5.2915    0.9589 H   0  0  0  0  0  0  0  0  0  0  0  0
   -3.5829    7.5433   -0.2787 H   0  0  0  0  0  0  0  0  0  0  0  0
   -1.3510    5.6336    0.5804 H   0  0  0  0  0  0  0  0  0  0  0  0
   -1.9538    5.8440   -1.0807 H   0  0  0  0  0  0  0  0  0  0  0  0
   -4.8190    2.9773    0.8008 H   0  0  0  0  0  0  0  0  0  0  0  0
   -3.8595    4.6268   -0.6794 H   0  0  0  0  0  0  0  0  0  0  0  0
   -1.2550    4.6740    1.9759 H   0  0  0  0  0  0  0  0  0  0  0  0
   -2.0317    3.1514    0.1390 H   0  0  0  0  0  0  0  0  0  0  0  0
   -3.9040    2.3474    2.1926 H   0  0  0  0  0  0  0  0  0  0  0  0
   -3.6634    1.6413    0.5761 H   0  0  0  0  0  0  0  0  0  0  0  0
   -0.3795    2.9031    3.1563 H   0  0  0  0  0  0  0  0  0  0  0  0
   -2.7336    4.2903    2.8888 H   0  0  0  0  0  0  0  0  0  0  0  0
   -2.0879    1.4034    1.1087 H   0  0  0  0  0  0  0  0  0  0  0  0
   -1.9815    2.1989    3.4792 H   0  0  0  0  0  0  0  0  0  0  0  0
    1.0078    1.7462    2.7795 H   0  0  0  0  0  0  0  0  0  0  0  0
   -0.4595    2.0642    0.8288 H   0  0  0  0  0  0  0  0  0  0  0  0
    0.6392   -1.2057    1.1546 H   0  0  0  0  0  0  0  0  0  0  0  0
   -1.1774   -0.0878    2.8818 H   0  0  0  0  0  0  0  0  0  0  0  0
   -1.1690    0.6156   -0.5128 H   0  0  0  0  0  0  0  0  0  0  0  0
   -1.1234   -1.3748    0.9764 H   0  0  0  0  0  0  0  0  0  0  0  0
    1.6464    0.1738    2.2427 H   0  0  0  0  0  0  0  0  0  0  0  0
    0.8438    0.3150    3.8251 H   0  0  0  0  0  0  0  0  0  0  0  0
   -0.0750   -0.6319   -1.1575 H   0  0  0  0  0  0  0  0  0  0  0  0
    0.5921    0.7951   -0.3294 H   0  0  0  0  0  0  0  0  0  0  0  0
   -2.3410   10.2460    0.7170 H   0  0  0  0  0  0  0  0  0  0  0  0
   -2.1860    9.0690    2.0130 H   0  0  0  0  0  0  0  0  0  0  0  0
   -0.7190    9.8570    1.3180 H   0  0  0  0  0  0  0  0  0  0  0  0
   -2.3460    8.0200   -1.9300 H   0  0  0  0  0  0  0  0  0  0  0  0
   -2.0940    9.7190   -1.5390 H   0  0  0  0  0  0  0  0  0  0  0  0
   -0.7040    8.6980   -1.8730 H   0  0  0  0  0  0  0  0  0  0  0  0
  1 42  1  0  0  0  0
  1 43  1  0  0  0  0
  1 44  1  0  0  0  0
  1  3  1  0  0  0  0
  2 45  1  0  0  0  0
  2 46  1  0  0  0  0
  2 47  1  0  0  0  0
  2  3  1  0  0  0  0
  3  4  1  0  0  0  0
  3 17  1  0  0  0  0
  4  5  1  0  0  0  0
  4 16  1  0  0  0  0
  4 19  1  0  0  0  0
  5  6  1  0  0  0  0
  5 20  1  0  0  0  0
  5 21  1  0  0  0  0
  6  7  1  0  0  0  0
  6 18  1  0  0  0  0
  6 23  1  0  0  0  0
  7  8  1  0  0  0  0
  7  9  1  0  0  0  0
  7 25  1  0  0  0  0
  8 22  1  0  0  0  0
  8 26  1  0  0  0  0
  8 27  1  0  0  0  0
  9 10  1  0  0  0  0
  9 24  1  0  0  0  0
  9 29  1  0  0  0  0
 10 11  1  0  0  0  0
 10 28  1  0  0  0  0
 10 31  1  0  0  0  0
 11 12  1  0  0  0  0
 11 30  1  0  0  0  0
 11 33  1  0  0  0  0
 12 13  1  0  0  0  0
 12 14  1  0  0  0  0
 12 35  1  0  0  0  0
 13 15  1  0  0  0  0
 13 34  1  0  0  0  0
 13 37  1  0  0  0  0
 14 32  1  0  0  0  0
 14 38  1  0  0  0  0
 14 39  1  0  0  0  0
 15 36  1  0  0  0  0
 15 40  1  0  0  0  0
 15 41  1  0  0  0  0
M  END
$$$$
farnesyl_sat.pdb_20
 OpenBabel07241819373D
VDW energy = 75.54
 47 46  0  0  0  0  0  0  0  0999 V2000
   -1.7100    9.4390    1.0900 C   0  0  0  0  0  0  0  0  0  0  0  0
   -1.6880    8.7310   -1.4210 C   0  0  0  0  0  0  0  0  0  0  0  0
   -1.5890    8.3130    0.0530 C   0  0  0  0  0  0  0  0  0  0  0  0
   -2.7120    7.2970    0.3300 C   0  0  0  0  0  0  0  0  0  0  0  0
   -2.2234    5.8804   -0.0250 C   0  0  0  0  0  0  0  0  0  0  0  0
   -2.2112    5.7092   -1.5551 C   0  0  0  0  0  0  0  0  0  0  0  0
   -2.6879    4.2900   -1.9166 C   0  0  0  0  0  0  0  0  0  0  0  0
   -2.6764    4.1168   -3.4468 C   0  0  0  0  0  0  0  0  0  0  0  0
   -4.1181    4.0773   -1.3855 C   0  0  0  0  0  0  0  0  0  0  0  0
   -4.5660    2.6334   -1.6789 C   0  0  0  0  0  0  0  0  0  0  0  0
   -3.3268    1.7398   -1.8761 C   0  0  0  0  0  0  0  0  0  0  0  0
   -3.7746    0.3085   -2.2219 C   0  0  0  0  0  0  0  0  0  0  0  0
   -2.5357   -0.5844   -2.4190 C   0  0  0  0  0  0  0  0  0  0  0  0
   -4.6348   -0.2532   -1.0736 C   0  0  0  0  0  0  0  0  0  0  0  0
   -2.9827   -2.0064   -2.8054 C   0  0  0  0  0  0  0  0  0  0  0  0
   -2.9855    7.3343    1.3844 H   0  0  0  0  0  0  0  0  0  0  0  0
   -0.5820    7.9150    0.1740 H   0  0  0  0  0  0  0  0  0  0  0  0
   -2.8770    6.4425   -2.0092 H   0  0  0  0  0  0  0  0  0  0  0  0
   -3.5829    7.5433   -0.2787 H   0  0  0  0  0  0  0  0  0  0  0  0
   -2.8918    5.1426    0.4194 H   0  0  0  0  0  0  0  0  0  0  0  0
   -1.2151    5.7367    0.3641 H   0  0  0  0  0  0  0  0  0  0  0  0
   -2.2983    5.0277   -3.9126 H   0  0  0  0  0  0  0  0  0  0  0  0
   -1.1987    5.8576   -1.9291 H   0  0  0  0  0  0  0  0  0  0  0  0
   -4.1379    4.2525   -0.3104 H   0  0  0  0  0  0  0  0  0  0  0  0
   -2.0211    3.5567   -1.4639 H   0  0  0  0  0  0  0  0  0  0  0  0
   -3.6899    3.9224   -3.7985 H   0  0  0  0  0  0  0  0  0  0  0  0
   -2.0324    3.2784   -3.7125 H   0  0  0  0  0  0  0  0  0  0  0  0
   -5.1550    2.2578   -0.8418 H   0  0  0  0  0  0  0  0  0  0  0  0
   -4.7953    4.7740   -1.8797 H   0  0  0  0  0  0  0  0  0  0  0  0
   -2.7182    2.1373   -2.6880 H   0  0  0  0  0  0  0  0  0  0  0  0
   -5.1722    2.6178   -2.5844 H   0  0  0  0  0  0  0  0  0  0  0  0
   -4.7940    0.5233   -0.3260 H   0  0  0  0  0  0  0  0  0  0  0  0
   -2.7404    1.7250   -0.9570 H   0  0  0  0  0  0  0  0  0  0  0  0
   -1.9119   -0.1709   -3.2119 H   0  0  0  0  0  0  0  0  0  0  0  0
   -4.3614    0.3230   -3.1406 H   0  0  0  0  0  0  0  0  0  0  0  0
   -3.6007   -2.4221   -2.0089 H   0  0  0  0  0  0  0  0  0  0  0  0
   -1.9648   -0.6227   -1.4914 H   0  0  0  0  0  0  0  0  0  0  0  0
   -4.1235   -1.0998   -0.6167 H   0  0  0  0  0  0  0  0  0  0  0  0
   -5.5972   -0.5800   -1.4688 H   0  0  0  0  0  0  0  0  0  0  0  0
   -2.1053   -2.6366   -2.9506 H   0  0  0  0  0  0  0  0  0  0  0  0
   -3.5590   -1.9673   -3.7290 H   0  0  0  0  0  0  0  0  0  0  0  0
   -2.3410   10.2460    0.7170 H   0  0  0  0  0  0  0  0  0  0  0  0
   -2.1860    9.0690    2.0130 H   0  0  0  0  0  0  0  0  0  0  0  0
   -0.7190    9.8570    1.3180 H   0  0  0  0  0  0  0  0  0  0  0  0
   -2.3460    8.0200   -1.9300 H   0  0  0  0  0  0  0  0  0  0  0  0
   -2.0940    9.7190   -1.5390 H   0  0  0  0  0  0  0  0  0  0  0  0
   -0.7040    8.6980   -1.8730 H   0  0  0  0  0  0  0  0  0  0  0  0
  1 42  1  0  0  0  0
  1 43  1  0  0  0  0
  1 44  1  0  0  0  0
  1  3  1  0  0  0  0
  2 45  1  0  0  0  0
  2 46  1  0  0  0  0
  2 47  1  0  0  0  0
  2  3  1  0  0  0  0
  3  4  1  0  0  0  0
  3 17  1  0  0  0  0
  4  5  1  0  0  0  0
  4 16  1  0  0  0  0
  4 19  1  0  0  0  0
  5  6  1  0  0  0  0
  5 20  1  0  0  0  0
  5 21  1  0  0  0  0
  6  7  1  0  0  0  0
  6 18  1  0  0  0  0
  6 23  1  0  0  0  0
  7  8  1  0  0  0  0
  7  9  1  0  0  0  0
  7 25  1  0  0  0  0
  8 22  1  0  0  0  0
  8 26  1  0  0  0  0
  8 27  1  0  0  0  0
  9 10  1  0  0  0  0
  9 24  1  0  0  0  0
  9 29  1  0  0  0  0
 10 11  1  0  0  0  0
 10 28  1  0  0  0  0
 10 31  1  0  0  0  0
 11 12  1  0  0  0  0
 11 30  1  0  0  0  0
 11 33  1  0  0  0  0
 12 13  1  0  0  0  0
 12 14  1  0  0  0  0
 12 35  1  0  0  0  0
 13 15  1  0  0  0  0
 13 34  1  0  0  0  0
 13 37  1  0  0  0  0
 14 32  1  0  0  0  0
 14 38  1  0  0  0  0
 14 39  1  0  0  0  0
 15 36  1  0  0  0  0
 15 40  1  0  0  0  0
 15 41  1  0  0  0  0
M  END
$$$$
farnesyl_sat.pdb_21
 OpenBabel07241819373D
VDW energy = 75.79
 47 46  0  0  0  0  0  0  0  0999 V2000
   -1.7100    9.4390    1.0900 C   0  0  0  0  0  0  0  0  0  0  0  0
   -1.6880    8.7310   -1.4210 C   0  0  0  0  0  0  0  0  0  0  0  0
   -1.5890    8.3130    0.0530 C   0  0  0  0  0  0  0  0  0  0  0  0
   -2.7120    7.2970    0.3300 C   0  0  0  0  0  0  0  0  0  0  0  0
   -2.2234    5.8804   -0.0250 C   0  0  0  0  0  0  0  0  0  0  0  0
   -3.3469    4.8646    0.2523 C   0  0  0  0  0  0  0  0  0  0  0  0
   -2.7416    3.5792    0.8465 C   0  0  0  0  0  0  0  0  0  0  0  0
   -1.2519    3.4879    0.4670 C   0  0  0  0  0  0  0  0  0  0  0  0
   -3.4902    2.3535    0.2898 C   0  0  0  0  0  0  0  0  0  0  0  0
   -2.9368    1.0730    0.9421 C   0  0  0  0  0  0  0  0  0  0  0  0
   -3.8141   -0.1287    0.5433 C   0  0  0  0  0  0  0  0  0  0  0  0
   -3.2927   -1.3993    1.2379 C   0  0  0  0  0  0  0  0  0  0  0  0
   -2.4742   -1.0063    2.4816 C   0  0  0  0  0  0  0  0  0  0  0  0
   -4.4840   -2.2785    1.6642 C   0  0  0  0  0  0  0  0  0  0  0  0
   -1.9180   -2.2753    3.1535 C   0  0  0  0  0  0  0  0  0  0  0  0
   -2.9855    7.3343    1.3844 H   0  0  0  0  0  0  0  0  0  0  0  0
   -0.5820    7.9150    0.1740 H   0  0  0  0  0  0  0  0  0  0  0  0
   -4.0579    5.2915    0.9589 H   0  0  0  0  0  0  0  0  0  0  0  0
   -3.5829    7.5433   -0.2787 H   0  0  0  0  0  0  0  0  0  0  0  0
   -1.3510    5.6336    0.5804 H   0  0  0  0  0  0  0  0  0  0  0  0
   -1.9538    5.8440   -1.0807 H   0  0  0  0  0  0  0  0  0  0  0  0
   -0.9672    4.3737   -0.1023 H   0  0  0  0  0  0  0  0  0  0  0  0
   -3.8595    4.6268   -0.6794 H   0  0  0  0  0  0  0  0  0  0  0  0
   -4.5532    2.4437    0.5111 H   0  0  0  0  0  0  0  0  0  0  0  0
   -2.8385    3.6002    1.9316 H   0  0  0  0  0  0  0  0  0  0  0  0
   -1.0847    2.5972   -0.1390 H   0  0  0  0  0  0  0  0  0  0  0  0
   -0.6492    3.4293    1.3734 H   0  0  0  0  0  0  0  0  0  0  0  0
   -1.9143    0.9045    0.6033 H   0  0  0  0  0  0  0  0  0  0  0  0
   -3.3471    2.3010   -0.7895 H   0  0  0  0  0  0  0  0  0  0  0  0
   -4.8438    0.0566    0.8481 H   0  0  0  0  0  0  0  0  0  0  0  0
   -2.9455    1.1844    2.0262 H   0  0  0  0  0  0  0  0  0  0  0  0
   -5.4105   -1.8360    1.2996 H   0  0  0  0  0  0  0  0  0  0  0  0
   -3.7747   -0.2635   -0.5380 H   0  0  0  0  0  0  0  0  0  0  0  0
   -1.6480   -0.3601    2.1839 H   0  0  0  0  0  0  0  0  0  0  0  0
   -2.6592   -1.9571    0.5480 H   0  0  0  0  0  0  0  0  0  0  0  0
   -2.7449   -2.9178    3.4574 H   0  0  0  0  0  0  0  0  0  0  0  0
   -3.1152   -0.4744    3.1846 H   0  0  0  0  0  0  0  0  0  0  0  0
   -4.5155   -2.3463    2.7511 H   0  0  0  0  0  0  0  0  0  0  0  0
   -4.3668   -3.2768    1.2411 H   0  0  0  0  0  0  0  0  0  0  0  0
   -1.3338   -1.9963    4.0304 H   0  0  0  0  0  0  0  0  0  0  0  0
   -1.2827   -2.8104    2.4487 H   0  0  0  0  0  0  0  0  0  0  0  0
   -2.3410   10.2460    0.7170 H   0  0  0  0  0  0  0  0  0  0  0  0
   -2.1860    9.0690    2.0130 H   0  0  0  0  0  0  0  0  0  0  0  0
   -0.7190    9.8570    1.3180 H   0  0  0  0  0  0  0  0  0  0  0  0
   -2.3460    8.0200   -1.9300 H   0  0  0  0  0  0  0  0  0  0  0  0
   -2.0940    9.7190   -1.5390 H   0  0  0  0  0  0  0  0  0  0  0  0
   -0.7040    8.6980   -1.8730 H   0  0  0  0  0  0  0  0  0  0  0  0
  1 42  1  0  0  0  0
  1 43  1  0  0  0  0
  1 44  1  0  0  0  0
  1  3  1  0  0  0  0
  2 45  1  0  0  0  0
  2 46  1  0  0  0  0
  2 47  1  0  0  0  0
  2  3  1  0  0  0  0
  3  4  1  0  0  0  0
  3 17  1  0  0  0  0
  4  5  1  0  0  0  0
  4 16  1  0  0  0  0
  4 19  1  0  0  0  0
  5  6  1  0  0  0  0
  5 20  1  0  0  0  0
  5 21  1  0  0  0  0
  6  7  1  0  0  0  0
  6 18  1  0  0  0  0
  6 23  1  0  0  0  0
  7  8  1  0  0  0  0
  7  9  1  0  0  0  0
  7 25  1  0  0  0  0
  8 22  1  0  0  0  0
  8 26  1  0  0  0  0
  8 27  1  0  0  0  0
  9 10  1  0  0  0  0
  9 24  1  0  0  0  0
  9 29  1  0  0  0  0
 10 11  1  0  0  0  0
 10 28  1  0  0  0  0
 10 31  1  0  0  0  0
 11 12  1  0  0  0  0
 11 30  1  0  0  0  0
 11 33  1  0  0  0  0
 12 13  1  0  0  0  0
 12 14  1  0  0  0  0
 12 35  1  0  0  0  0
 13 15  1  0  0  0  0
 13 34  1  0  0  0  0
 13 37  1  0  0  0  0
 14 32  1  0  0  0  0
 14 38  1  0  0  0  0
 14 39  1  0  0  0  0
 15 36  1  0  0  0  0
 15 40  1  0  0  0  0
 15 41  1  0  0  0  0
M  END
$$$$
farnesyl_sat.pdb_22
 OpenBabel07241819373D
VDW energy = 76.69
 47 46  0  0  0  0  0  0  0  0999 V2000
   -1.7100    9.4390    1.0900 C   0  0  0  0  0  0  0  0  0  0  0  0
   -1.6880    8.7310   -1.4210 C   0  0  0  0  0  0  0  0  0  0  0  0
   -1.5890    8.3130    0.0530 C   0  0  0  0  0  0  0  0  0  0  0  0
   -2.7120    7.2970    0.3300 C   0  0  0  0  0  0  0  0  0  0  0  0
   -2.2234    5.8804   -0.0250 C   0  0  0  0  0  0  0  0  0  0  0  0
   -3.3469    4.8646    0.2523 C   0  0  0  0  0  0  0  0  0  0  0  0
   -2.7416    3.5792    0.8465 C   0  0  0  0  0  0  0  0  0  0  0  0
   -3.8638    2.5619    1.1245 C   0  0  0  0  0  0  0  0  0  0  0  0
   -2.0136    3.9143    2.1619 C   0  0  0  0  0  0  0  0  0  0  0  0
   -1.3428    2.6438    2.7164 C   0  0  0  0  0  0  0  0  0  0  0  0
   -0.4497    3.0145    3.9156 C   0  0  0  0  0  0  0  0  0  0  0  0
   -0.0723    4.5044    3.8345 C   0  0  0  0  0  0  0  0  0  0  0  0
    0.4032    4.9903    5.2161 C   0  0  0  0  0  0  0  0  0  0  0  0
    1.0597    4.6933    2.8064 C   0  0  0  0  0  0  0  0  0  0  0  0
   -0.1556    4.0603    6.3089 C   0  0  0  0  0  0  0  0  0  0  0  0
   -2.9855    7.3343    1.3844 H   0  0  0  0  0  0  0  0  0  0  0  0
   -0.5820    7.9150    0.1740 H   0  0  0  0  0  0  0  0  0  0  0  0
   -4.0579    5.2915    0.9589 H   0  0  0  0  0  0  0  0  0  0  0  0
   -3.5829    7.5433   -0.2787 H   0  0  0  0  0  0  0  0  0  0  0  0
   -1.3510    5.6336    0.5804 H   0  0  0  0  0  0  0  0  0  0  0  0
   -1.9538    5.8440   -1.0807 H   0  0  0  0  0  0  0  0  0  0  0  0
   -4.8190    2.9773    0.8008 H   0  0  0  0  0  0  0  0  0  0  0  0
   -3.8595    4.6268   -0.6794 H   0  0  0  0  0  0  0  0  0  0  0  0
   -1.2550    4.6740    1.9759 H   0  0  0  0  0  0  0  0  0  0  0  0
   -2.0317    3.1514    0.1390 H   0  0  0  0  0  0  0  0  0  0  0  0
   -3.9040    2.3474    2.1926 H   0  0  0  0  0  0  0  0  0  0  0  0
   -3.6634    1.6413    0.5761 H   0  0  0  0  0  0  0  0  0  0  0  0
   -2.1092    1.9385    3.0387 H   0  0  0  0  0  0  0  0  0  0  0  0
   -2.7336    4.2903    2.8888 H   0  0  0  0  0  0  0  0  0  0  0  0
   -0.9902    2.8256    4.8427 H   0  0  0  0  0  0  0  0  0  0  0  0
   -0.7330    2.1855    1.9381 H   0  0  0  0  0  0  0  0  0  0  0  0
    1.2687    3.7421    2.3178 H   0  0  0  0  0  0  0  0  0  0  0  0
    0.4564    2.4084    3.8941 H   0  0  0  0  0  0  0  0  0  0  0  0
    1.4929    4.9786    5.2504 H   0  0  0  0  0  0  0  0  0  0  0  0
   -0.9426    5.0838    3.5258 H   0  0  0  0  0  0  0  0  0  0  0  0
   -1.2454    4.0780    6.2787 H   0  0  0  0  0  0  0  0  0  0  0  0
    0.0461    6.0059    5.3862 H   0  0  0  0  0  0  0  0  0  0  0  0
    1.9565    5.0472    3.3138 H   0  0  0  0  0  0  0  0  0  0  0  0
    0.7517    5.4257    2.0594 H   0  0  0  0  0  0  0  0  0  0  0  0
    0.1862    4.4012    7.2862 H   0  0  0  0  0  0  0  0  0  0  0  0
    0.1959    3.0439    6.1351 H   0  0  0  0  0  0  0  0  0  0  0  0
   -2.3410   10.2460    0.7170 H   0  0  0  0  0  0  0  0  0  0  0  0
   -2.1860    9.0690    2.0130 H   0  0  0  0  0  0  0  0  0  0  0  0
   -0.7190    9.8570    1.3180 H   0  0  0  0  0  0  0  0  0  0  0  0
   -2.3460    8.0200   -1.9300 H   0  0  0  0  0  0  0  0  0  0  0  0
   -2.0940    9.7190   -1.5390 H   0  0  0  0  0  0  0  0  0  0  0  0
   -0.7040    8.6980   -1.8730 H   0  0  0  0  0  0  0  0  0  0  0  0
  1 42  1  0  0  0  0
  1 43  1  0  0  0  0
  1 44  1  0  0  0  0
  1  3  1  0  0  0  0
  2 45  1  0  0  0  0
  2 46  1  0  0  0  0
  2 47  1  0  0  0  0
  2  3  1  0  0  0  0
  3  4  1  0  0  0  0
  3 17  1  0  0  0  0
  4  5  1  0  0  0  0
  4 16  1  0  0  0  0
  4 19  1  0  0  0  0
  5  6  1  0  0  0  0
  5 20  1  0  0  0  0
  5 21  1  0  0  0  0
  6  7  1  0  0  0  0
  6 18  1  0  0  0  0
  6 23  1  0  0  0  0
  7  8  1  0  0  0  0
  7  9  1  0  0  0  0
  7 25  1  0  0  0  0
  8 22  1  0  0  0  0
  8 26  1  0  0  0  0
  8 27  1  0  0  0  0
  9 10  1  0  0  0  0
  9 24  1  0  0  0  0
  9 29  1  0  0  0  0
 10 11  1  0  0  0  0
 10 28  1  0  0  0  0
 10 31  1  0  0  0  0
 11 12  1  0  0  0  0
 11 30  1  0  0  0  0
 11 33  1  0  0  0  0
 12 13  1  0  0  0  0
 12 14  1  0  0  0  0
 12 35  1  0  0  0  0
 13 15  1  0  0  0  0
 13 34  1  0  0  0  0
 13 37  1  0  0  0  0
 14 32  1  0  0  0  0
 14 38  1  0  0  0  0
 14 39  1  0  0  0  0
 15 36  1  0  0  0  0
 15 40  1  0  0  0  0
 15 41  1  0  0  0  0
M  END
$$$$
farnesyl_sat.pdb_23
 OpenBabel07241819373D
VDW energy = 77.42
 47 46  0  0  0  0  0  0  0  0999 V2000
   -1.7100    9.4390    1.0900 C   0  0  0  0  0  0  0  0  0  0  0  0
   -1.6880    8.7310   -1.4210 C   0  0  0  0  0  0  0  0  0  0  0  0
   -1.5890    8.3130    0.0530 C   0  0  0  0  0  0  0  0  0  0  0  0
   -2.7120    7.2970    0.3300 C   0  0  0  0  0  0  0  0  0  0  0  0
   -3.8451    7.9836    1.1150 C   0  0  0  0  0  0  0  0  0  0  0  0
   -4.9680    6.9671    1.3918 C   0  0  0  0  0  0  0  0  0  0  0  0
   -6.3355    7.6590    1.2404 C   0  0  0  0  0  0  0  0  0  0  0  0
   -7.4600    6.6438    1.5169 C   0  0  0  0  0  0  0  0  0  0  0  0
   -6.4783    8.2075   -0.1919 C   0  0  0  0  0  0  0  0  0  0  0  0
   -7.8121    8.9663   -0.3213 C   0  0  0  0  0  0  0  0  0  0  0  0
   -7.8656    9.6851   -1.6827 C   0  0  0  0  0  0  0  0  0  0  0  0
   -9.1751   10.4867   -1.7899 C   0  0  0  0  0  0  0  0  0  0  0  0
   -9.0380   11.5502   -2.8949 C   0  0  0  0  0  0  0  0  0  0  0  0
  -10.3351    9.5335   -2.1360 C   0  0  0  0  0  0  0  0  0  0  0  0
   -7.9263   11.1331   -3.8754 C   0  0  0  0  0  0  0  0  0  0  0  0
   -3.1015    6.9175   -0.6145 H   0  0  0  0  0  0  0  0  0  0  0  0
   -0.5820    7.9150    0.1740 H   0  0  0  0  0  0  0  0  0  0  0  0
   -4.8971    6.1436    0.6819 H   0  0  0  0  0  0  0  0  0  0  0  0
   -2.3150    6.4679    0.9170 H   0  0  0  0  0  0  0  0  0  0  0  0
   -4.2411    8.8147    0.5310 H   0  0  0  0  0  0  0  0  0  0  0  0
   -3.4545    8.3593    2.0610 H   0  0  0  0  0  0  0  0  0  0  0  0
   -7.0226    5.6830    1.7909 H   0  0  0  0  0  0  0  0  0  0  0  0
   -4.8671    6.5817    2.4059 H   0  0  0  0  0  0  0  0  0  0  0  0
   -5.6526    8.8849   -0.4072 H   0  0  0  0  0  0  0  0  0  0  0  0
   -6.4069    8.4816    1.9515 H   0  0  0  0  0  0  0  0  0  0  0  0
   -8.0698    6.5234    0.6211 H   0  0  0  0  0  0  0  0  0  0  0  0
   -8.0831    7.0059    2.3347 H   0  0  0  0  0  0  0  0  0  0  0  0
   -8.6405    8.2611   -0.2502 H   0  0  0  0  0  0  0  0  0  0  0  0
   -6.4628    7.3791   -0.9002 H   0  0  0  0  0  0  0  0  0  0  0  0
   -7.0161   10.3620   -1.7694 H   0  0  0  0  0  0  0  0  0  0  0  0
   -7.8917    9.7007    0.4799 H   0  0  0  0  0  0  0  0  0  0  0  0
   -9.9718    8.5062   -2.1404 H   0  0  0  0  0  0  0  0  0  0  0  0
   -7.8246    8.9472   -2.4843 H   0  0  0  0  0  0  0  0  0  0  0  0
   -9.9824   11.6400   -3.4324 H   0  0  0  0  0  0  0  0  0  0  0  0
   -9.3806   10.9768   -0.8380 H   0  0  0  0  0  0  0  0  0  0  0  0
   -6.9807   11.0504   -3.3387 H   0  0  0  0  0  0  0  0  0  0  0  0
   -8.7842   12.5101   -2.4452 H   0  0  0  0  0  0  0  0  0  0  0  0
  -10.7308    9.7843   -3.1196 H   0  0  0  0  0  0  0  0  0  0  0  0
  -11.1236    9.6370   -1.3898 H   0  0  0  0  0  0  0  0  0  0  0  0
   -7.8336   11.8833   -4.6607 H   0  0  0  0  0  0  0  0  0  0  0  0
   -8.1767   10.1705   -4.3199 H   0  0  0  0  0  0  0  0  0  0  0  0
   -2.3410   10.2460    0.7170 H   0  0  0  0  0  0  0  0  0  0  0  0
   -2.1860    9.0690    2.0130 H   0  0  0  0  0  0  0  0  0  0  0  0
   -0.7190    9.8570    1.3180 H   0  0  0  0  0  0  0  0  0  0  0  0
   -2.3460    8.0200   -1.9300 H   0  0  0  0  0  0  0  0  0  0  0  0
   -2.0940    9.7190   -1.5390 H   0  0  0  0  0  0  0  0  0  0  0  0
   -0.7040    8.6980   -1.8730 H   0  0  0  0  0  0  0  0  0  0  0  0
  1 42  1  0  0  0  0
  1 43  1  0  0  0  0
  1 44  1  0  0  0  0
  1  3  1  0  0  0  0
  2 45  1  0  0  0  0
  2 46  1  0  0  0  0
  2 47  1  0  0  0  0
  2  3  1  0  0  0  0
  3  4  1  0  0  0  0
  3 17  1  0  0  0  0
  4  5  1  0  0  0  0
  4 16  1  0  0  0  0
  4 19  1  0  0  0  0
  5  6  1  0  0  0  0
  5 20  1  0  0  0  0
  5 21  1  0  0  0  0
  6  7  1  0  0  0  0
  6 18  1  0  0  0  0
  6 23  1  0  0  0  0
  7  8  1  0  0  0  0
  7  9  1  0  0  0  0
  7 25  1  0  0  0  0
  8 22  1  0  0  0  0
  8 26  1  0  0  0  0
  8 27  1  0  0  0  0
  9 10  1  0  0  0  0
  9 24  1  0  0  0  0
  9 29  1  0  0  0  0
 10 11  1  0  0  0  0
 10 28  1  0  0  0  0
 10 31  1  0  0  0  0
 11 12  1  0  0  0  0
 11 30  1  0  0  0  0
 11 33  1  0  0  0  0
 12 13  1  0  0  0  0
 12 14  1  0  0  0  0
 12 35  1  0  0  0  0
 13 15  1  0  0  0  0
 13 34  1  0  0  0  0
 13 37  1  0  0  0  0
 14 32  1  0  0  0  0
 14 38  1  0  0  0  0
 14 39  1  0  0  0  0
 15 36  1  0  0  0  0
 15 40  1  0  0  0  0
 15 41  1  0  0  0  0
M  END
$$$$
farnesyl_sat.pdb_24
 OpenBabel07241819373D
VDW energy = 77.88
 47 46  0  0  0  0  0  0  0  0999 V2000
   -1.7100    9.4390    1.0900 C   0  0  0  0  0  0  0  0  0  0  0  0
   -1.6880    8.7310   -1.4210 C   0  0  0  0  0  0  0  0  0  0  0  0
   -1.5890    8.3130    0.0530 C   0  0  0  0  0  0  0  0  0  0  0  0
   -2.7120    7.2970    0.3300 C   0  0  0  0  0  0  0  0  0  0  0  0
   -3.8451    7.9836    1.1150 C   0  0  0  0  0  0  0  0  0  0  0  0
   -4.9680    6.9671    1.3918 C   0  0  0  0  0  0  0  0  0  0  0  0
   -6.3355    7.6590    1.2404 C   0  0  0  0  0  0  0  0  0  0  0  0
   -7.4600    6.6438    1.5169 C   0  0  0  0  0  0  0  0  0  0  0  0
   -6.4783    8.2075   -0.1919 C   0  0  0  0  0  0  0  0  0  0  0  0
   -7.8121    8.9663   -0.3213 C   0  0  0  0  0  0  0  0  0  0  0  0
   -7.8656    9.6851   -1.6827 C   0  0  0  0  0  0  0  0  0  0  0  0
   -9.1751   10.4867   -1.7899 C   0  0  0  0  0  0  0  0  0  0  0  0
  -10.2174    9.9012   -0.8194 C   0  0  0  0  0  0  0  0  0  0  0  0
   -8.9076   11.9603   -1.4281 C   0  0  0  0  0  0  0  0  0  0  0  0
  -11.5276   10.7031   -0.9265 C   0  0  0  0  0  0  0  0  0  0  0  0
   -3.1015    6.9175   -0.6145 H   0  0  0  0  0  0  0  0  0  0  0  0
   -0.5820    7.9150    0.1740 H   0  0  0  0  0  0  0  0  0  0  0  0
   -4.8971    6.1436    0.6819 H   0  0  0  0  0  0  0  0  0  0  0  0
   -2.3150    6.4679    0.9170 H   0  0  0  0  0  0  0  0  0  0  0  0
   -4.2411    8.8147    0.5310 H   0  0  0  0  0  0  0  0  0  0  0  0
   -3.4545    8.3593    2.0610 H   0  0  0  0  0  0  0  0  0  0  0  0
   -7.0226    5.6830    1.7909 H   0  0  0  0  0  0  0  0  0  0  0  0
   -4.8671    6.5817    2.4059 H   0  0  0  0  0  0  0  0  0  0  0  0
   -5.6526    8.8849   -0.4072 H   0  0  0  0  0  0  0  0  0  0  0  0
   -6.4069    8.4816    1.9515 H   0  0  0  0  0  0  0  0  0  0  0  0
   -8.0698    6.5234    0.6211 H   0  0  0  0  0  0  0  0  0  0  0  0
   -8.0831    7.0059    2.3347 H   0  0  0  0  0  0  0  0  0  0  0  0
   -8.6405    8.2611   -0.2502 H   0  0  0  0  0  0  0  0  0  0  0  0
   -6.4628    7.3791   -0.9002 H   0  0  0  0  0  0  0  0  0  0  0  0
   -7.0161   10.3620   -1.7694 H   0  0  0  0  0  0  0  0  0  0  0  0
   -7.8917    9.7007    0.4799 H   0  0  0  0  0  0  0  0  0  0  0  0
   -7.8403   12.1056   -1.2636 H   0  0  0  0  0  0  0  0  0  0  0  0
   -7.8246    8.9472   -2.4843 H   0  0  0  0  0  0  0  0  0  0  0  0
  -10.4069    8.8584   -1.0751 H   0  0  0  0  0  0  0  0  0  0  0  0
   -9.5554   10.4274   -2.8099 H   0  0  0  0  0  0  0  0  0  0  0  0
  -11.3388   11.7444   -0.6637 H   0  0  0  0  0  0  0  0  0  0  0  0
   -9.8373    9.9610    0.2004 H   0  0  0  0  0  0  0  0  0  0  0  0
   -9.4543   12.2172   -0.5214 H   0  0  0  0  0  0  0  0  0  0  0  0
   -9.2397   12.6000   -2.2464 H   0  0  0  0  0  0  0  0  0  0  0  0
  -12.2669   10.2846   -0.2436 H   0  0  0  0  0  0  0  0  0  0  0  0
  -11.9039   10.6489   -1.9474 H   0  0  0  0  0  0  0  0  0  0  0  0
   -2.3410   10.2460    0.7170 H   0  0  0  0  0  0  0  0  0  0  0  0
   -2.1860    9.0690    2.0130 H   0  0  0  0  0  0  0  0  0  0  0  0
   -0.7190    9.8570    1.3180 H   0  0  0  0  0  0  0  0  0  0  0  0
   -2.3460    8.0200   -1.9300 H   0  0  0  0  0  0  0  0  0  0  0  0
   -2.0940    9.7190   -1.5390 H   0  0  0  0  0  0  0  0  0  0  0  0
   -0.7040    8.6980   -1.8730 H   0  0  0  0  0  0  0  0  0  0  0  0
  1 42  1  0  0  0  0
  1 43  1  0  0  0  0
  1 44  1  0  0  0  0
  1  3  1  0  0  0  0
  2 45  1  0  0  0  0
  2 46  1  0  0  0  0
  2 47  1  0  0  0  0
  2  3  1  0  0  0  0
  3  4  1  0  0  0  0
  3 17  1  0  0  0  0
  4  5  1  0  0  0  0
  4 16  1  0  0  0  0
  4 19  1  0  0  0  0
  5  6  1  0  0  0  0
  5 20  1  0  0  0  0
  5 21  1  0  0  0  0
  6  7  1  0  0  0  0
  6 18  1  0  0  0  0
  6 23  1  0  0  0  0
  7  8  1  0  0  0  0
  7  9  1  0  0  0  0
  7 25  1  0  0  0  0
  8 22  1  0  0  0  0
  8 26  1  0  0  0  0
  8 27  1  0  0  0  0
  9 10  1  0  0  0  0
  9 24  1  0  0  0  0
  9 29  1  0  0  0  0
 10 11  1  0  0  0  0
 10 28  1  0  0  0  0
 10 31  1  0  0  0  0
 11 12  1  0  0  0  0
 11 30  1  0  0  0  0
 11 33  1  0  0  0  0
 12 13  1  0  0  0  0
 12 14  1  0  0  0  0
 12 35  1  0  0  0  0
 13 15  1  0  0  0  0
 13 34  1  0  0  0  0
 13 37  1  0  0  0  0
 14 32  1  0  0  0  0
 14 38  1  0  0  0  0
 14 39  1  0  0  0  0
 15 36  1  0  0  0  0
 15 40  1  0  0  0  0
 15 41  1  0  0  0  0
M  END
$$$$
farnesyl_sat.pdb_25
 OpenBabel07241819373D
VDW energy = 78.20
 47 46  0  0  0  0  0  0  0  0999 V2000
   -1.7100    9.4390    1.0900 C   0  0  0  0  0  0  0  0  0  0  0  0
   -1.6880    8.7310   -1.4210 C   0  0  0  0  0  0  0  0  0  0  0  0
   -1.5890    8.3130    0.0530 C   0  0  0  0  0  0  0  0  0  0  0  0
   -2.7120    7.2970    0.3300 C   0  0  0  0  0  0  0  0  0  0  0  0
   -3.8451    7.9836    1.1150 C   0  0  0  0  0  0  0  0  0  0  0  0
   -4.9680    6.9671    1.3918 C   0  0  0  0  0  0  0  0  0  0  0  0
   -6.3355    7.6590    1.2404 C   0  0  0  0  0  0  0  0  0  0  0  0
   -7.4600    6.6438    1.5169 C   0  0  0  0  0  0  0  0  0  0  0  0
   -6.4783    8.2075   -0.1919 C   0  0  0  0  0  0  0  0  0  0  0  0
   -7.8121    8.9663   -0.3213 C   0  0  0  0  0  0  0  0  0  0  0  0
   -7.8656    9.6851   -1.6827 C   0  0  0  0  0  0  0  0  0  0  0  0
   -9.1751   10.4867   -1.7899 C   0  0  0  0  0  0  0  0  0  0  0  0
   -9.7196   10.7734   -0.3784 C   0  0  0  0  0  0  0  0  0  0  0  0
   -8.9053   11.8184   -2.5163 C   0  0  0  0  0  0  0  0  0  0  0  0
  -11.0297   11.5754   -0.4855 C   0  0  0  0  0  0  0  0  0  0  0  0
   -3.1015    6.9175   -0.6145 H   0  0  0  0  0  0  0  0  0  0  0  0
   -0.5820    7.9150    0.1740 H   0  0  0  0  0  0  0  0  0  0  0  0
   -4.8971    6.1436    0.6819 H   0  0  0  0  0  0  0  0  0  0  0  0
   -2.3150    6.4679    0.9170 H   0  0  0  0  0  0  0  0  0  0  0  0
   -4.2411    8.8147    0.5310 H   0  0  0  0  0  0  0  0  0  0  0  0
   -3.4545    8.3593    2.0610 H   0  0  0  0  0  0  0  0  0  0  0  0
   -7.0226    5.6830    1.7909 H   0  0  0  0  0  0  0  0  0  0  0  0
   -4.8671    6.5817    2.4059 H   0  0  0  0  0  0  0  0  0  0  0  0
   -5.6526    8.8849   -0.4072 H   0  0  0  0  0  0  0  0  0  0  0  0
   -6.4069    8.4816    1.9515 H   0  0  0  0  0  0  0  0  0  0  0  0
   -8.0698    6.5234    0.6211 H   0  0  0  0  0  0  0  0  0  0  0  0
   -8.0831    7.0059    2.3347 H   0  0  0  0  0  0  0  0  0  0  0  0
   -8.6405    8.2611   -0.2502 H   0  0  0  0  0  0  0  0  0  0  0  0
   -6.4628    7.3791   -0.9002 H   0  0  0  0  0  0  0  0  0  0  0  0
   -7.0161   10.3620   -1.7694 H   0  0  0  0  0  0  0  0  0  0  0  0
   -7.8917    9.7007    0.4799 H   0  0  0  0  0  0  0  0  0  0  0  0
   -7.8707   11.8427   -2.8575 H   0  0  0  0  0  0  0  0  0  0  0  0
   -7.8246    8.9472   -2.4843 H   0  0  0  0  0  0  0  0  0  0  0  0
   -9.9106    9.8312    0.1359 H   0  0  0  0  0  0  0  0  0  0  0  0
   -9.9098    9.9098   -2.3520 H   0  0  0  0  0  0  0  0  0  0  0  0
  -10.8366   12.5207   -0.9936 H   0  0  0  0  0  0  0  0  0  0  0  0
   -8.9853   11.3507    0.1833 H   0  0  0  0  0  0  0  0  0  0  0  0
   -9.0832   12.6480   -1.8329 H   0  0  0  0  0  0  0  0  0  0  0  0
   -9.5730   11.9046   -3.3742 H   0  0  0  0  0  0  0  0  0  0  0  0
  -11.4178   11.7730    0.5137 H   0  0  0  0  0  0  0  0  0  0  0  0
  -11.7614   11.0013   -1.0527 H   0  0  0  0  0  0  0  0  0  0  0  0
   -2.3410   10.2460    0.7170 H   0  0  0  0  0  0  0  0  0  0  0  0
   -2.1860    9.0690    2.0130 H   0  0  0  0  0  0  0  0  0  0  0  0
   -0.7190    9.8570    1.3180 H   0  0  0  0  0  0  0  0  0  0  0  0
   -2.3460    8.0200   -1.9300 H   0  0  0  0  0  0  0  0  0  0  0  0
   -2.0940    9.7190   -1.5390 H   0  0  0  0  0  0  0  0  0  0  0  0
   -0.7040    8.6980   -1.8730 H   0  0  0  0  0  0  0  0  0  0  0  0
  1 42  1  0  0  0  0
  1 43  1  0  0  0  0
  1 44  1  0  0  0  0
  1  3  1  0  0  0  0
  2 45  1  0  0  0  0
  2 46  1  0  0  0  0
  2 47  1  0  0  0  0
  2  3  1  0  0  0  0
  3  4  1  0  0  0  0
  3 17  1  0  0  0  0
  4  5  1  0  0  0  0
  4 16  1  0  0  0  0
  4 19  1  0  0  0  0
  5  6  1  0  0  0  0
  5 20  1  0  0  0  0
  5 21  1  0  0  0  0
  6  7  1  0  0  0  0
  6 18  1  0  0  0  0
  6 23  1  0  0  0  0
  7  8  1  0  0  0  0
  7  9  1  0  0  0  0
  7 25  1  0  0  0  0
  8 22  1  0  0  0  0
  8 26  1  0  0  0  0
  8 27  1  0  0  0  0
  9 10  1  0  0  0  0
  9 24  1  0  0  0  0
  9 29  1  0  0  0  0
 10 11  1  0  0  0  0
 10 28  1  0  0  0  0
 10 31  1  0  0  0  0
 11 12  1  0  0  0  0
 11 30  1  0  0  0  0
 11 33  1  0  0  0  0
 12 13  1  0  0  0  0
 12 14  1  0  0  0  0
 12 35  1  0  0  0  0
 13 15  1  0  0  0  0
 13 34  1  0  0  0  0
 13 37  1  0  0  0  0
 14 32  1  0  0  0  0
 14 38  1  0  0  0  0
 14 39  1  0  0  0  0
 15 36  1  0  0  0  0
 15 40  1  0  0  0  0
 15 41  1  0  0  0  0
M  END
$$$$
farnesyl_sat.pdb_26
 OpenBabel07241819373D
VDW energy = 79.79
 47 46  0  0  0  0  0  0  0  0999 V2000
   -1.7100    9.4390    1.0900 C   0  0  0  0  0  0  0  0  0  0  0  0
   -1.6880    8.7310   -1.4210 C   0  0  0  0  0  0  0  0  0  0  0  0
   -1.5890    8.3130    0.0530 C   0  0  0  0  0  0  0  0  0  0  0  0
   -2.7120    7.2970    0.3300 C   0  0  0  0  0  0  0  0  0  0  0  0
   -2.2234    5.8804   -0.0250 C   0  0  0  0  0  0  0  0  0  0  0  0
   -3.3469    4.8646    0.2523 C   0  0  0  0  0  0  0  0  0  0  0  0
   -4.7062    5.5885    0.2466 C   0  0  0  0  0  0  0  0  0  0  0  0
   -5.8313    4.5742    0.5237 C   0  0  0  0  0  0  0  0  0  0  0  0
   -4.9330    6.2455   -1.1280 C   0  0  0  0  0  0  0  0  0  0  0  0
   -6.2558    7.0339   -1.1092 C   0  0  0  0  0  0  0  0  0  0  0  0
   -6.3850    7.8539   -2.4068 C   0  0  0  0  0  0  0  0  0  0  0  0
   -7.6811    8.6829   -2.3643 C   0  0  0  0  0  0  0  0  0  0  0  0
   -7.5955    9.8242   -3.3945 C   0  0  0  0  0  0  0  0  0  0  0  0
   -8.8821    7.7778   -2.6996 C   0  0  0  0  0  0  0  0  0  0  0  0
   -8.8922   10.6537   -3.3522 C   0  0  0  0  0  0  0  0  0  0  0  0
   -2.9855    7.3343    1.3844 H   0  0  0  0  0  0  0  0  0  0  0  0
   -0.5820    7.9150    0.1740 H   0  0  0  0  0  0  0  0  0  0  0  0
   -3.3417    4.0958   -0.5198 H   0  0  0  0  0  0  0  0  0  0  0  0
   -3.5829    7.5433   -0.2787 H   0  0  0  0  0  0  0  0  0  0  0  0
   -1.3510    5.6336    0.5804 H   0  0  0  0  0  0  0  0  0  0  0  0
   -1.9538    5.8440   -1.0807 H   0  0  0  0  0  0  0  0  0  0  0  0
   -5.3974    3.5883    0.6953 H   0  0  0  0  0  0  0  0  0  0  0  0
   -3.1865    4.4024    1.2258 H   0  0  0  0  0  0  0  0  0  0  0  0
   -4.1091    6.9234   -1.3488 H   0  0  0  0  0  0  0  0  0  0  0  0
   -4.7119    6.3563    1.0199 H   0  0  0  0  0  0  0  0  0  0  0  0
   -6.5023    4.5316   -0.3345 H   0  0  0  0  0  0  0  0  0  0  0  0
   -6.3901    4.8840    1.4070 H   0  0  0  0  0  0  0  0  0  0  0  0
   -7.0926    6.3392   -1.0338 H   0  0  0  0  0  0  0  0  0  0  0  0
   -4.9830    5.4726   -1.8951 H   0  0  0  0  0  0  0  0  0  0  0  0
   -5.5288    8.5213   -2.5012 H   0  0  0  0  0  0  0  0  0  0  0  0
   -6.2654    7.7071   -0.2522 H   0  0  0  0  0  0  0  0  0  0  0  0
   -8.5422    6.7479   -2.8048 H   0  0  0  0  0  0  0  0  0  0  0  0
   -6.4139    7.1778   -3.2617 H   0  0  0  0  0  0  0  0  0  0  0  0
   -6.7457   10.4648   -3.1575 H   0  0  0  0  0  0  0  0  0  0  0  0
   -7.8115    9.1033   -1.3670 H   0  0  0  0  0  0  0  0  0  0  0  0
   -9.7409   10.0140   -3.5962 H   0  0  0  0  0  0  0  0  0  0  0  0
   -7.4657    9.4038   -4.3917 H   0  0  0  0  0  0  0  0  0  0  0  0
   -9.3374    8.1084   -3.6325 H   0  0  0  0  0  0  0  0  0  0  0  0
   -9.6162    7.8379   -1.8955 H   0  0  0  0  0  0  0  0  0  0  0  0
   -8.8287   11.4649   -4.0773 H   0  0  0  0  0  0  0  0  0  0  0  0
   -9.0254   11.0683   -2.3536 H   0  0  0  0  0  0  0  0  0  0  0  0
   -2.3410   10.2460    0.7170 H   0  0  0  0  0  0  0  0  0  0  0  0
   -2.1860    9.0690    2.0130 H   0  0  0  0  0  0  0  0  0  0  0  0
   -0.7190    9.8570    1.3180 H   0  0  0  0  0  0  0  0  0  0  0  0
   -2.3460    8.0200   -1.9300 H   0  0  0  0  0  0  0  0  0  0  0  0
   -2.0940    9.7190   -1.5390 H   0  0  0  0  0  0  0  0  0  0  0  0
   -0.7040    8.6980   -1.8730 H   0  0  0  0  0  0  0  0  0  0  0  0
  1 42  1  0  0  0  0
  1 43  1  0  0  0  0
  1 44  1  0  0  0  0
  1  3  1  0  0  0  0
  2 45  1  0  0  0  0
  2 46  1  0  0  0  0
  2 47  1  0  0  0  0
  2  3  1  0  0  0  0
  3  4  1  0  0  0  0
  3 17  1  0  0  0  0
  4  5  1  0  0  0  0
  4 16  1  0  0  0  0
  4 19  1  0  0  0  0
  5  6  1  0  0  0  0
  5 20  1  0  0  0  0
  5 21  1  0  0  0  0
  6  7  1  0  0  0  0
  6 18  1  0  0  0  0
  6 23  1  0  0  0  0
  7  8  1  0  0  0  0
  7  9  1  0  0  0  0
  7 25  1  0  0  0  0
  8 22  1  0  0  0  0
  8 26  1  0  0  0  0
  8 27  1  0  0  0  0
  9 10  1  0  0  0  0
  9 24  1  0  0  0  0
  9 29  1  0  0  0  0
 10 11  1  0  0  0  0
 10 28  1  0  0  0  0
 10 31  1  0  0  0  0
 11 12  1  0  0  0  0
 11 30  1  0  0  0  0
 11 33  1  0  0  0  0
 12 13  1  0  0  0  0
 12 14  1  0  0  0  0
 12 35  1  0  0  0  0
 13 15  1  0  0  0  0
 13 34  1  0  0  0  0
 13 37  1  0  0  0  0
 14 32  1  0  0  0  0
 14 38  1  0  0  0  0
 14 39  1  0  0  0  0
 15 36  1  0  0  0  0
 15 40  1  0  0  0  0
 15 41  1  0  0  0  0
M  END
$$$$
farnesyl_sat.pdb_27
 OpenBabel07241819373D
VDW energy = 79.81
 47 46  0  0  0  0  0  0  0  0999 V2000
   -1.7100    9.4390    1.0900 C   0  0  0  0  0  0  0  0  0  0  0  0
   -1.6880    8.7310   -1.4210 C   0  0  0  0  0  0  0  0  0  0  0  0
   -1.5890    8.3130    0.0530 C   0  0  0  0  0  0  0  0  0  0  0  0
   -2.7120    7.2970    0.3300 C   0  0  0  0  0  0  0  0  0  0  0  0
   -2.2234    5.8804   -0.0250 C   0  0  0  0  0  0  0  0  0  0  0  0
   -3.3469    4.8646    0.2523 C   0  0  0  0  0  0  0  0  0  0  0  0
   -2.7416    3.5792    0.8465 C   0  0  0  0  0  0  0  0  0  0  0  0
   -3.8638    2.5619    1.1245 C   0  0  0  0  0  0  0  0  0  0  0  0
   -2.0136    3.9143    2.1619 C   0  0  0  0  0  0  0  0  0  0  0  0
   -1.3428    2.6438    2.7164 C   0  0  0  0  0  0  0  0  0  0  0  0
   -0.4497    3.0145    3.9156 C   0  0  0  0  0  0  0  0  0  0  0  0
   -0.9201    4.3528    4.5127 C   0  0  0  0  0  0  0  0  0  0  0  0
   -0.3694    4.4994    5.9432 C   0  0  0  0  0  0  0  0  0  0  0  0
   -0.4037    5.5145    3.6423 C   0  0  0  0  0  0  0  0  0  0  0  0
    0.8691    3.6000    6.1124 C   0  0  0  0  0  0  0  0  0  0  0  0
   -2.9855    7.3343    1.3844 H   0  0  0  0  0  0  0  0  0  0  0  0
   -0.5820    7.9150    0.1740 H   0  0  0  0  0  0  0  0  0  0  0  0
   -4.0579    5.2915    0.9589 H   0  0  0  0  0  0  0  0  0  0  0  0
   -3.5829    7.5433   -0.2787 H   0  0  0  0  0  0  0  0  0  0  0  0
   -1.3510    5.6336    0.5804 H   0  0  0  0  0  0  0  0  0  0  0  0
   -1.9538    5.8440   -1.0807 H   0  0  0  0  0  0  0  0  0  0  0  0
   -4.8190    2.9773    0.8008 H   0  0  0  0  0  0  0  0  0  0  0  0
   -3.8595    4.6268   -0.6794 H   0  0  0  0  0  0  0  0  0  0  0  0
   -1.2550    4.6740    1.9759 H   0  0  0  0  0  0  0  0  0  0  0  0
   -2.0317    3.1514    0.1390 H   0  0  0  0  0  0  0  0  0  0  0  0
   -3.9040    2.3474    2.1926 H   0  0  0  0  0  0  0  0  0  0  0  0
   -3.6634    1.6413    0.5761 H   0  0  0  0  0  0  0  0  0  0  0  0
   -2.1092    1.9385    3.0387 H   0  0  0  0  0  0  0  0  0  0  0  0
   -2.7336    4.2903    2.8888 H   0  0  0  0  0  0  0  0  0  0  0  0
   -0.5168    2.2340    4.6731 H   0  0  0  0  0  0  0  0  0  0  0  0
   -0.7330    2.1855    1.9381 H   0  0  0  0  0  0  0  0  0  0  0  0
    0.1007    5.1134    2.7637 H   0  0  0  0  0  0  0  0  0  0  0  0
    0.5842    3.1087    3.5824 H   0  0  0  0  0  0  0  0  0  0  0  0
   -0.0915    5.5387    6.1211 H   0  0  0  0  0  0  0  0  0  0  0  0
   -2.0097    4.3764    4.5391 H   0  0  0  0  0  0  0  0  0  0  0  0
    0.5890    2.5601    5.9414 H   0  0  0  0  0  0  0  0  0  0  0  0
   -1.1352    4.2014    6.6591 H   0  0  0  0  0  0  0  0  0  0  0  0
    0.2953    6.1188    4.2196 H   0  0  0  0  0  0  0  0  0  0  0  0
   -1.2450    6.1329    3.3278 H   0  0  0  0  0  0  0  0  0  0  0  0
    1.2620    3.7087    7.1233 H   0  0  0  0  0  0  0  0  0  0  0  0
    1.6320    3.8936    5.3923 H   0  0  0  0  0  0  0  0  0  0  0  0
   -2.3410   10.2460    0.7170 H   0  0  0  0  0  0  0  0  0  0  0  0
   -2.1860    9.0690    2.0130 H   0  0  0  0  0  0  0  0  0  0  0  0
   -0.7190    9.8570    1.3180 H   0  0  0  0  0  0  0  0  0  0  0  0
   -2.3460    8.0200   -1.9300 H   0  0  0  0  0  0  0  0  0  0  0  0
   -2.0940    9.7190   -1.5390 H   0  0  0  0  0  0  0  0  0  0  0  0
   -0.7040    8.6980   -1.8730 H   0  0  0  0  0  0  0  0  0  0  0  0
  1 42  1  0  0  0  0
  1 43  1  0  0  0  0
  1 44  1  0  0  0  0
  1  3  1  0  0  0  0
  2 45  1  0  0  0  0
  2 46  1  0  0  0  0
  2 47  1  0  0  0  0
  2  3  1  0  0  0  0
  3  4  1  0  0  0  0
  3 17  1  0  0  0  0
  4  5  1  0  0  0  0
  4 16  1  0  0  0  0
  4 19  1  0  0  0  0
  5  6  1  0  0  0  0
  5 20  1  0  0  0  0
  5 21  1  0  0  0  0
  6  7  1  0  0  0  0
  6 18  1  0  0  0  0
  6 23  1  0  0  0  0
  7  8  1  0  0  0  0
  7  9  1  0  0  0  0
  7 25  1  0  0  0  0
  8 22  1  0  0  0  0
  8 26  1  0  0  0  0
  8 27  1  0  0  0  0
  9 10  1  0  0  0  0
  9 24  1  0  0  0  0
  9 29  1  0  0  0  0
 10 11  1  0  0  0  0
 10 28  1  0  0  0  0
 10 31  1  0  0  0  0
 11 12  1  0  0  0  0
 11 30  1  0  0  0  0
 11 33  1  0  0  0  0
 12 13  1  0  0  0  0
 12 14  1  0  0  0  0
 12 35  1  0  0  0  0
 13 15  1  0  0  0  0
 13 34  1  0  0  0  0
 13 37  1  0  0  0  0
 14 32  1  0  0  0  0
 14 38  1  0  0  0  0
 14 39  1  0  0  0  0
 15 36  1  0  0  0  0
 15 40  1  0  0  0  0
 15 41  1  0  0  0  0
M  END
$$$$
farnesyl_sat.pdb_28
 OpenBabel07241819373D
VDW energy = 80.50
 47 46  0  0  0  0  0  0  0  0999 V2000
   -1.7100    9.4390    1.0900 C   0  0  0  0  0  0  0  0  0  0  0  0
   -1.6880    8.7310   -1.4210 C   0  0  0  0  0  0  0  0  0  0  0  0
   -1.5890    8.3130    0.0530 C   0  0  0  0  0  0  0  0  0  0  0  0
   -2.7120    7.2970    0.3300 C   0  0  0  0  0  0  0  0  0  0  0  0
   -3.1798    7.4326    1.7909 C   0  0  0  0  0  0  0  0  0  0  0  0
   -4.3030    6.4163    2.0674 C   0  0  0  0  0  0  0  0  0  0  0  0
   -5.3698    7.0633    2.9703 C   0  0  0  0  0  0  0  0  0  0  0  0
   -6.4942    6.0482    3.2480 C   0  0  0  0  0  0  0  0  0  0  0  0
   -5.9568    8.3013    2.2663 C   0  0  0  0  0  0  0  0  0  0  0  0
   -6.9675    8.9928    3.2001 C   0  0  0  0  0  0  0  0  0  0  0  0
   -7.4021   10.3361    2.5840 C   0  0  0  0  0  0  0  0  0  0  0  0
   -8.3711   11.0517    3.5420 C   0  0  0  0  0  0  0  0  0  0  0  0
   -8.4410   12.5468    3.1806 C   0  0  0  0  0  0  0  0  0  0  0  0
   -9.7740   10.4271    3.4165 C   0  0  0  0  0  0  0  0  0  0  0  0
   -8.0036   12.7434    1.7173 C   0  0  0  0  0  0  0  0  0  0  0  0
   -3.5501    7.4882   -0.3400 H   0  0  0  0  0  0  0  0  0  0  0  0
   -0.5820    7.9150    0.1740 H   0  0  0  0  0  0  0  0  0  0  0  0
   -4.7597    6.1127    1.1259 H   0  0  0  0  0  0  0  0  0  0  0  0
   -2.3373    6.2866    0.1616 H   0  0  0  0  0  0  0  0  0  0  0  0
   -3.5519    8.4430    1.9619 H   0  0  0  0  0  0  0  0  0  0  0  0
   -2.3412    7.2373    2.4596 H   0  0  0  0  0  0  0  0  0  0  0  0
   -6.2519    5.0981    2.7702 H   0  0  0  0  0  0  0  0  0  0  0  0
   -3.8868    5.5422    2.5674 H   0  0  0  0  0  0  0  0  0  0  0  0
   -5.1544    8.9962    2.0210 H   0  0  0  0  0  0  0  0  0  0  0  0
   -4.9134    7.3654    3.9125 H   0  0  0  0  0  0  0  0  0  0  0  0
   -7.4342    6.4277    2.8468 H   0  0  0  0  0  0  0  0  0  0  0  0
   -6.5916    5.8996    4.3235 H   0  0  0  0  0  0  0  0  0  0  0  0
   -7.8408    8.3529    3.3291 H   0  0  0  0  0  0  0  0  0  0  0  0
   -6.4620    7.9921    1.3512 H   0  0  0  0  0  0  0  0  0  0  0  0
   -6.5246   10.9609    2.4197 H   0  0  0  0  0  0  0  0  0  0  0  0
   -6.5031    9.1718    4.1696 H   0  0  0  0  0  0  0  0  0  0  0  0
   -9.7316    9.5720    2.7425 H   0  0  0  0  0  0  0  0  0  0  0  0
   -7.9011   10.1539    1.6318 H   0  0  0  0  0  0  0  0  0  0  0  0
   -9.4637   12.9037    3.3059 H   0  0  0  0  0  0  0  0  0  0  0  0
   -8.0162   10.9423    4.5670 H   0  0  0  0  0  0  0  0  0  0  0  0
   -6.9784   12.3929    1.5943 H   0  0  0  0  0  0  0  0  0  0  0  0
   -7.7776   13.1101    3.8367 H   0  0  0  0  0  0  0  0  0  0  0  0
  -10.4681   11.1682    3.0217 H   0  0  0  0  0  0  0  0  0  0  0  0
  -10.1133   10.0986    4.3995 H   0  0  0  0  0  0  0  0  0  0  0  0
   -8.0590   13.8011    1.4602 H   0  0  0  0  0  0  0  0  0  0  0  0
   -8.6626   12.1750    1.0620 H   0  0  0  0  0  0  0  0  0  0  0  0
   -2.3410   10.2460    0.7170 H   0  0  0  0  0  0  0  0  0  0  0  0
   -2.1860    9.0690    2.0130 H   0  0  0  0  0  0  0  0  0  0  0  0
   -0.7190    9.8570    1.3180 H   0  0  0  0  0  0  0  0  0  0  0  0
   -2.3460    8.0200   -1.9300 H   0  0  0  0  0  0  0  0  0  0  0  0
   -2.0940    9.7190   -1.5390 H   0  0  0  0  0  0  0  0  0  0  0  0
   -0.7040    8.6980   -1.8730 H   0  0  0  0  0  0  0  0  0  0  0  0
  1 42  1  0  0  0  0
  1 43  1  0  0  0  0
  1 44  1  0  0  0  0
  1  3  1  0  0  0  0
  2 45  1  0  0  0  0
  2 46  1  0  0  0  0
  2 47  1  0  0  0  0
  2  3  1  0  0  0  0
  3  4  1  0  0  0  0
  3 17  1  0  0  0  0
  4  5  1  0  0  0  0
  4 16  1  0  0  0  0
  4 19  1  0  0  0  0
  5  6  1  0  0  0  0
  5 20  1  0  0  0  0
  5 21  1  0  0  0  0
  6  7  1  0  0  0  0
  6 18  1  0  0  0  0
  6 23  1  0  0  0  0
  7  8  1  0  0  0  0
  7  9  1  0  0  0  0
  7 25  1  0  0  0  0
  8 22  1  0  0  0  0
  8 26  1  0  0  0  0
  8 27  1  0  0  0  0
  9 10  1  0  0  0  0
  9 24  1  0  0  0  0
  9 29  1  0  0  0  0
 10 11  1  0  0  0  0
 10 28  1  0  0  0  0
 10 31  1  0  0  0  0
 11 12  1  0  0  0  0
 11 30  1  0  0  0  0
 11 33  1  0  0  0  0
 12 13  1  0  0  0  0
 12 14  1  0  0  0  0
 12 35  1  0  0  0  0
 13 15  1  0  0  0  0
 13 34  1  0  0  0  0
 13 37  1  0  0  0  0
 14 32  1  0  0  0  0
 14 38  1  0  0  0  0
 14 39  1  0  0  0  0
 15 36  1  0  0  0  0
 15 40  1  0  0  0  0
 15 41  1  0  0  0  0
M  END
$$$$
farnesyl_sat.pdb_29
 OpenBabel07241819373D
VDW energy = 80.96
 47 46  0  0  0  0  0  0  0  0999 V2000
   -1.7100    9.4390    1.0900 C   0  0  0  0  0  0  0  0  0  0  0  0
   -1.6880    8.7310   -1.4210 C   0  0  0  0  0  0  0  0  0  0  0  0
   -1.5890    8.3130    0.0530 C   0  0  0  0  0  0  0  0  0  0  0  0
   -2.7120    7.2970    0.3300 C   0  0  0  0  0  0  0  0  0  0  0  0
   -3.1798    7.4326    1.7909 C   0  0  0  0  0  0  0  0  0  0  0  0
   -4.3030    6.4163    2.0674 C   0  0  0  0  0  0  0  0  0  0  0  0
   -5.3698    7.0633    2.9703 C   0  0  0  0  0  0  0  0  0  0  0  0
   -6.4942    6.0482    3.2480 C   0  0  0  0  0  0  0  0  0  0  0  0
   -5.9568    8.3013    2.2663 C   0  0  0  0  0  0  0  0  0  0  0  0
   -6.9675    8.9928    3.2001 C   0  0  0  0  0  0  0  0  0  0  0  0
   -7.4021   10.3361    2.5840 C   0  0  0  0  0  0  0  0  0  0  0  0
   -8.3711   11.0517    3.5420 C   0  0  0  0  0  0  0  0  0  0  0  0
   -9.0165   10.0203    4.4858 C   0  0  0  0  0  0  0  0  0  0  0  0
   -7.5977   12.0939    4.3725 C   0  0  0  0  0  0  0  0  0  0  0  0
   -9.9860   10.7361    5.4444 C   0  0  0  0  0  0  0  0  0  0  0  0
   -3.5501    7.4882   -0.3400 H   0  0  0  0  0  0  0  0  0  0  0  0
   -0.5820    7.9150    0.1740 H   0  0  0  0  0  0  0  0  0  0  0  0
   -4.7597    6.1127    1.1259 H   0  0  0  0  0  0  0  0  0  0  0  0
   -2.3373    6.2866    0.1616 H   0  0  0  0  0  0  0  0  0  0  0  0
   -3.5519    8.4430    1.9619 H   0  0  0  0  0  0  0  0  0  0  0  0
   -2.3412    7.2373    2.4596 H   0  0  0  0  0  0  0  0  0  0  0  0
   -6.2519    5.0981    2.7702 H   0  0  0  0  0  0  0  0  0  0  0  0
   -3.8868    5.5422    2.5674 H   0  0  0  0  0  0  0  0  0  0  0  0
   -5.1544    8.9962    2.0210 H   0  0  0  0  0  0  0  0  0  0  0  0
   -4.9134    7.3654    3.9125 H   0  0  0  0  0  0  0  0  0  0  0  0
   -7.4342    6.4277    2.8468 H   0  0  0  0  0  0  0  0  0  0  0  0
   -6.5916    5.8996    4.3235 H   0  0  0  0  0  0  0  0  0  0  0  0
   -7.8408    8.3529    3.3291 H   0  0  0  0  0  0  0  0  0  0  0  0
   -6.4620    7.9921    1.3512 H   0  0  0  0  0  0  0  0  0  0  0  0
   -6.5246   10.9609    2.4197 H   0  0  0  0  0  0  0  0  0  0  0  0
   -6.5031    9.1718    4.1696 H   0  0  0  0  0  0  0  0  0  0  0  0
   -6.5649   12.1387    4.0279 H   0  0  0  0  0  0  0  0  0  0  0  0
   -7.9011   10.1539    1.6318 H   0  0  0  0  0  0  0  0  0  0  0  0
   -9.5638    9.2825    3.8984 H   0  0  0  0  0  0  0  0  0  0  0  0
   -9.1489   11.5527    2.9655 H   0  0  0  0  0  0  0  0  0  0  0  0
   -9.4367   11.4687    6.0366 H   0  0  0  0  0  0  0  0  0  0  0  0
   -8.2388    9.5198    5.0626 H   0  0  0  0  0  0  0  0  0  0  0  0
   -7.6191   11.8096    5.4240 H   0  0  0  0  0  0  0  0  0  0  0  0
   -8.0642   13.0721    4.2509 H   0  0  0  0  0  0  0  0  0  0  0  0
  -10.4470   10.0048    6.1083 H   0  0  0  0  0  0  0  0  0  0  0  0
  -10.7594   11.2419    4.8677 H   0  0  0  0  0  0  0  0  0  0  0  0
   -2.3410   10.2460    0.7170 H   0  0  0  0  0  0  0  0  0  0  0  0
   -2.1860    9.0690    2.0130 H   0  0  0  0  0  0  0  0  0  0  0  0
   -0.7190    9.8570    1.3180 H   0  0  0  0  0  0  0  0  0  0  0  0
   -2.3460    8.0200   -1.9300 H   0  0  0  0  0  0  0  0  0  0  0  0
   -2.0940    9.7190   -1.5390 H   0  0  0  0  0  0  0  0  0  0  0  0
   -0.7040    8.6980   -1.8730 H   0  0  0  0  0  0  0  0  0  0  0  0
  1 42  1  0  0  0  0
  1 43  1  0  0  0  0
  1 44  1  0  0  0  0
  1  3  1  0  0  0  0
  2 45  1  0  0  0  0
  2 46  1  0  0  0  0
  2 47  1  0  0  0  0
  2  3  1  0  0  0  0
  3  4  1  0  0  0  0
  3 17  1  0  0  0  0
  4  5  1  0  0  0  0
  4 16  1  0  0  0  0
  4 19  1  0  0  0  0
  5  6  1  0  0  0  0
  5 20  1  0  0  0  0
  5 21  1  0  0  0  0
  6  7  1  0  0  0  0
  6 18  1  0  0  0  0
  6 23  1  0  0  0  0
  7  8  1  0  0  0  0
  7  9  1  0  0  0  0
  7 25  1  0  0  0  0
  8 22  1  0  0  0  0
  8 26  1  0  0  0  0
  8 27  1  0  0  0  0
  9 10  1  0  0  0  0
  9 24  1  0  0  0  0
  9 29  1  0  0  0  0
 10 11  1  0  0  0  0
 10 28  1  0  0  0  0
 10 31  1  0  0  0  0
 11 12  1  0  0  0  0
 11 30  1  0  0  0  0
 11 33  1  0  0  0  0
 12 13  1  0  0  0  0
 12 14  1  0  0  0  0
 12 35  1  0  0  0  0
 13 15  1  0  0  0  0
 13 34  1  0  0  0  0
 13 37  1  0  0  0  0
 14 32  1  0  0  0  0
 14 38  1  0  0  0  0
 14 39  1  0  0  0  0
 15 36  1  0  0  0  0
 15 40  1  0  0  0  0
 15 41  1  0  0  0  0
M  END
$$$$
farnesyl_sat.pdb_30
 OpenBabel07241819373D
VDW energy = 81.24
 47 46  0  0  0  0  0  0  0  0999 V2000
   -1.7100    9.4390    1.0900 C   0  0  0  0  0  0  0  0  0  0  0  0
   -1.6880    8.7310   -1.4210 C   0  0  0  0  0  0  0  0  0  0  0  0
   -1.5890    8.3130    0.0530 C   0  0  0  0  0  0  0  0  0  0  0  0
   -2.7120    7.2970    0.3300 C   0  0  0  0  0  0  0  0  0  0  0  0
   -3.8451    7.9836    1.1150 C   0  0  0  0  0  0  0  0  0  0  0  0
   -4.9680    6.9671    1.3918 C   0  0  0  0  0  0  0  0  0  0  0  0
   -6.3355    7.6590    1.2404 C   0  0  0  0  0  0  0  0  0  0  0  0
   -7.4600    6.6438    1.5169 C   0  0  0  0  0  0  0  0  0  0  0  0
   -6.4783    8.2075   -0.1919 C   0  0  0  0  0  0  0  0  0  0  0  0
   -7.8121    8.9663   -0.3213 C   0  0  0  0  0  0  0  0  0  0  0  0
   -7.8656    9.6851   -1.6827 C   0  0  0  0  0  0  0  0  0  0  0  0
   -9.1751   10.4867   -1.7899 C   0  0  0  0  0  0  0  0  0  0  0  0
   -9.0380   11.5502   -2.8949 C   0  0  0  0  0  0  0  0  0  0  0  0
  -10.3351    9.5335   -2.1360 C   0  0  0  0  0  0  0  0  0  0  0  0
   -7.5473   11.8508   -3.1376 C   0  0  0  0  0  0  0  0  0  0  0  0
   -3.1015    6.9175   -0.6145 H   0  0  0  0  0  0  0  0  0  0  0  0
   -0.5820    7.9150    0.1740 H   0  0  0  0  0  0  0  0  0  0  0  0
   -4.8971    6.1436    0.6819 H   0  0  0  0  0  0  0  0  0  0  0  0
   -2.3150    6.4679    0.9170 H   0  0  0  0  0  0  0  0  0  0  0  0
   -4.2411    8.8147    0.5310 H   0  0  0  0  0  0  0  0  0  0  0  0
   -3.4545    8.3593    2.0610 H   0  0  0  0  0  0  0  0  0  0  0  0
   -7.0226    5.6830    1.7909 H   0  0  0  0  0  0  0  0  0  0  0  0
   -4.8671    6.5817    2.4059 H   0  0  0  0  0  0  0  0  0  0  0  0
   -5.6526    8.8849   -0.4072 H   0  0  0  0  0  0  0  0  0  0  0  0
   -6.4069    8.4816    1.9515 H   0  0  0  0  0  0  0  0  0  0  0  0
   -8.0698    6.5234    0.6211 H   0  0  0  0  0  0  0  0  0  0  0  0
   -8.0831    7.0059    2.3347 H   0  0  0  0  0  0  0  0  0  0  0  0
   -8.6405    8.2611   -0.2502 H   0  0  0  0  0  0  0  0  0  0  0  0
   -6.4628    7.3791   -0.9002 H   0  0  0  0  0  0  0  0  0  0  0  0
   -7.0161   10.3620   -1.7694 H   0  0  0  0  0  0  0  0  0  0  0  0
   -7.8917    9.7007    0.4799 H   0  0  0  0  0  0  0  0  0  0  0  0
   -9.9718    8.5062   -2.1404 H   0  0  0  0  0  0  0  0  0  0  0  0
   -7.8246    8.9472   -2.4843 H   0  0  0  0  0  0  0  0  0  0  0  0
   -9.4889   11.1784   -3.8154 H   0  0  0  0  0  0  0  0  0  0  0  0
   -9.3806   10.9768   -0.8380 H   0  0  0  0  0  0  0  0  0  0  0  0
   -7.0987   12.2293   -2.2187 H   0  0  0  0  0  0  0  0  0  0  0  0
   -9.5467   12.4630   -2.5851 H   0  0  0  0  0  0  0  0  0  0  0  0
  -10.7308    9.7843   -3.1196 H   0  0  0  0  0  0  0  0  0  0  0  0
  -11.1236    9.6370   -1.3898 H   0  0  0  0  0  0  0  0  0  0  0  0
   -7.4506   12.5993   -3.9240 H   0  0  0  0  0  0  0  0  0  0  0  0
   -7.0375   10.9370   -3.4408 H   0  0  0  0  0  0  0  0  0  0  0  0
   -2.3410   10.2460    0.7170 H   0  0  0  0  0  0  0  0  0  0  0  0
   -2.1860    9.0690    2.0130 H   0  0  0  0  0  0  0  0  0  0  0  0
   -0.7190    9.8570    1.3180 H   0  0  0  0  0  0  0  0  0  0  0  0
   -2.3460    8.0200   -1.9300 H   0  0  0  0  0  0  0  0  0  0  0  0
   -2.0940    9.7190   -1.5390 H   0  0  0  0  0  0  0  0  0  0  0  0
   -0.7040    8.6980   -1.8730 H   0  0  0  0  0  0  0  0  0  0  0  0
  1 42  1  0  0  0  0
  1 43  1  0  0  0  0
  1 44  1  0  0  0  0
  1  3  1  0  0  0  0
  2 45  1  0  0  0  0
  2 46  1  0  0  0  0
  2 47  1  0  0  0  0
  2  3  1  0  0  0  0
  3  4  1  0  0  0  0
  3 17  1  0  0  0  0
  4  5  1  0  0  0  0
  4 16  1  0  0  0  0
  4 19  1  0  0  0  0
  5  6  1  0  0  0  0
  5 20  1  0  0  0  0
  5 21  1  0  0  0  0
  6  7  1  0  0  0  0
  6 18  1  0  0  0  0
  6 23  1  0  0  0  0
  7  8  1  0  0  0  0
  7  9  1  0  0  0  0
  7 25  1  0  0  0  0
  8 22  1  0  0  0  0
  8 26  1  0  0  0  0
  8 27  1  0  0  0  0
  9 10  1  0  0  0  0
  9 24  1  0  0  0  0
  9 29  1  0  0  0  0
 10 11  1  0  0  0  0
 10 28  1  0  0  0  0
 10 31  1  0  0  0  0
 11 12  1  0  0  0  0
 11 30  1  0  0  0  0
 11 33  1  0  0  0  0
 12 13  1  0  0  0  0
 12 14  1  0  0  0  0
 12 35  1  0  0  0  0
 13 15  1  0  0  0  0
 13 34  1  0  0  0  0
 13 37  1  0  0  0  0
 14 32  1  0  0  0  0
 14 38  1  0  0  0  0
 14 39  1  0  0  0  0
 15 36  1  0  0  0  0
 15 40  1  0  0  0  0
 15 41  1  0  0  0  0
M  END
$$$$
farnesyl_sat.pdb_31
 OpenBabel07241819373D
VDW energy = 81.29
 47 46  0  0  0  0  0  0  0  0999 V2000
   -1.7100    9.4390    1.0900 C   0  0  0  0  0  0  0  0  0  0  0  0
   -1.6880    8.7310   -1.4210 C   0  0  0  0  0  0  0  0  0  0  0  0
   -1.5890    8.3130    0.0530 C   0  0  0  0  0  0  0  0  0  0  0  0
   -2.7120    7.2970    0.3300 C   0  0  0  0  0  0  0  0  0  0  0  0
   -2.2234    5.8804   -0.0250 C   0  0  0  0  0  0  0  0  0  0  0  0
   -3.3469    4.8646    0.2523 C   0  0  0  0  0  0  0  0  0  0  0  0
   -2.7416    3.5792    0.8465 C   0  0  0  0  0  0  0  0  0  0  0  0
   -3.8638    2.5619    1.1245 C   0  0  0  0  0  0  0  0  0  0  0  0
   -2.0136    3.9143    2.1619 C   0  0  0  0  0  0  0  0  0  0  0  0
   -2.5696    5.2304    2.7365 C   0  0  0  0  0  0  0  0  0  0  0  0
   -1.9917    5.4619    4.1455 C   0  0  0  0  0  0  0  0  0  0  0  0
   -2.5886    6.7496    4.7410 C   0  0  0  0  0  0  0  0  0  0  0  0
   -3.9191    7.0732    4.0366 C   0  0  0  0  0  0  0  0  0  0  0  0
   -2.8407    6.5509    6.2480 C   0  0  0  0  0  0  0  0  0  0  0  0
   -4.5165    8.3614    4.6323 C   0  0  0  0  0  0  0  0  0  0  0  0
   -2.9855    7.3343    1.3844 H   0  0  0  0  0  0  0  0  0  0  0  0
   -0.5820    7.9150    0.1740 H   0  0  0  0  0  0  0  0  0  0  0  0
   -4.0579    5.2915    0.9589 H   0  0  0  0  0  0  0  0  0  0  0  0
   -3.5829    7.5433   -0.2787 H   0  0  0  0  0  0  0  0  0  0  0  0
   -1.3510    5.6336    0.5804 H   0  0  0  0  0  0  0  0  0  0  0  0
   -1.9538    5.8440   -1.0807 H   0  0  0  0  0  0  0  0  0  0  0  0
   -4.8190    2.9773    0.8008 H   0  0  0  0  0  0  0  0  0  0  0  0
   -3.8595    4.6268   -0.6794 H   0  0  0  0  0  0  0  0  0  0  0  0
   -2.1691    3.1099    2.8802 H   0  0  0  0  0  0  0  0  0  0  0  0
   -2.0317    3.1514    0.1390 H   0  0  0  0  0  0  0  0  0  0  0  0
   -3.9040    2.3474    2.1926 H   0  0  0  0  0  0  0  0  0  0  0  0
   -3.6634    1.6413    0.5761 H   0  0  0  0  0  0  0  0  0  0  0  0
   -2.2867    6.0593    2.0873 H   0  0  0  0  0  0  0  0  0  0  0  0
   -0.9469    4.0262    1.9672 H   0  0  0  0  0  0  0  0  0  0  0  0
   -2.2421    4.6152    4.7841 H   0  0  0  0  0  0  0  0  0  0  0  0
   -3.6562    5.1708    2.7954 H   0  0  0  0  0  0  0  0  0  0  0  0
   -2.4597    5.5772    6.5545 H   0  0  0  0  0  0  0  0  0  0  0  0
   -0.9077    5.5598    4.0814 H   0  0  0  0  0  0  0  0  0  0  0  0
   -3.7411    7.2137    2.9702 H   0  0  0  0  0  0  0  0  0  0  0  0
   -1.8911    7.5747    4.5960 H   0  0  0  0  0  0  0  0  0  0  0  0
   -4.7009    8.2178    5.6974 H   0  0  0  0  0  0  0  0  0  0  0  0
   -4.6166    6.2484    4.1821 H   0  0  0  0  0  0  0  0  0  0  0  0
   -3.9104    6.6031    6.4478 H   0  0  0  0  0  0  0  0  0  0  0  0
   -2.3278    7.3343    6.8071 H   0  0  0  0  0  0  0  0  0  0  0  0
   -5.4552    8.5933    4.1293 H   0  0  0  0  0  0  0  0  0  0  0  0
   -3.8164    9.1844    4.4929 H   0  0  0  0  0  0  0  0  0  0  0  0
   -2.3410   10.2460    0.7170 H   0  0  0  0  0  0  0  0  0  0  0  0
   -2.1860    9.0690    2.0130 H   0  0  0  0  0  0  0  0  0  0  0  0
   -0.7190    9.8570    1.3180 H   0  0  0  0  0  0  0  0  0  0  0  0
   -2.3460    8.0200   -1.9300 H   0  0  0  0  0  0  0  0  0  0  0  0
   -2.0940    9.7190   -1.5390 H   0  0  0  0  0  0  0  0  0  0  0  0
   -0.7040    8.6980   -1.8730 H   0  0  0  0  0  0  0  0  0  0  0  0
  1 42  1  0  0  0  0
  1 43  1  0  0  0  0
  1 44  1  0  0  0  0
  1  3  1  0  0  0  0
  2 45  1  0  0  0  0
  2 46  1  0  0  0  0
  2 47  1  0  0  0  0
  2  3  1  0  0  0  0
  3  4  1  0  0  0  0
  3 17  1  0  0  0  0
  4  5  1  0  0  0  0
  4 16  1  0  0  0  0
  4 19  1  0  0  0  0
  5  6  1  0  0  0  0
  5 20  1  0  0  0  0
  5 21  1  0  0  0  0
  6  7  1  0  0  0  0
  6 18  1  0  0  0  0
  6 23  1  0  0  0  0
  7  8  1  0  0  0  0
  7  9  1  0  0  0  0
  7 25  1  0  0  0  0
  8 22  1  0  0  0  0
  8 26  1  0  0  0  0
  8 27  1  0  0  0  0
  9 10  1  0  0  0  0
  9 24  1  0  0  0  0
  9 29  1  0  0  0  0
 10 11  1  0  0  0  0
 10 28  1  0  0  0  0
 10 31  1  0  0  0  0
 11 12  1  0  0  0  0
 11 30  1  0  0  0  0
 11 33  1  0  0  0  0
 12 13  1  0  0  0  0
 12 14  1  0  0  0  0
 12 35  1  0  0  0  0
 13 15  1  0  0  0  0
 13 34  1  0  0  0  0
 13 37  1  0  0  0  0
 14 32  1  0  0  0  0
 14 38  1  0  0  0  0
 14 39  1  0  0  0  0
 15 36  1  0  0  0  0
 15 40  1  0  0  0  0
 15 41  1  0  0  0  0
M  END
$$$$
farnesyl_sat.pdb_32
 OpenBabel07241819373D
VDW energy = 82.81
 47 46  0  0  0  0  0  0  0  0999 V2000
   -1.7100    9.4390    1.0900 C   0  0  0  0  0  0  0  0  0  0  0  0
   -1.6880    8.7310   -1.4210 C   0  0  0  0  0  0  0  0  0  0  0  0
   -1.5890    8.3130    0.0530 C   0  0  0  0  0  0  0  0  0  0  0  0
   -2.7120    7.2970    0.3300 C   0  0  0  0  0  0  0  0  0  0  0  0
   -2.2234    5.8804   -0.0250 C   0  0  0  0  0  0  0  0  0  0  0  0
   -2.2112    5.7092   -1.5551 C   0  0  0  0  0  0  0  0  0  0  0  0
   -2.6879    4.2900   -1.9166 C   0  0  0  0  0  0  0  0  0  0  0  0
   -2.6764    4.1168   -3.4468 C   0  0  0  0  0  0  0  0  0  0  0  0
   -4.1181    4.0773   -1.3855 C   0  0  0  0  0  0  0  0  0  0  0  0
   -4.5660    2.6334   -1.6789 C   0  0  0  0  0  0  0  0  0  0  0  0
   -3.3268    1.7398   -1.8761 C   0  0  0  0  0  0  0  0  0  0  0  0
   -3.7746    0.3085   -2.2219 C   0  0  0  0  0  0  0  0  0  0  0  0
   -5.2164    0.0874   -1.7285 C   0  0  0  0  0  0  0  0  0  0  0  0
   -3.7177    0.1062   -3.7483 C   0  0  0  0  0  0  0  0  0  0  0  0
   -5.6500   -1.3574   -2.0376 C   0  0  0  0  0  0  0  0  0  0  0  0
   -2.9855    7.3343    1.3844 H   0  0  0  0  0  0  0  0  0  0  0  0
   -0.5820    7.9150    0.1740 H   0  0  0  0  0  0  0  0  0  0  0  0
   -2.8770    6.4425   -2.0092 H   0  0  0  0  0  0  0  0  0  0  0  0
   -3.5829    7.5433   -0.2787 H   0  0  0  0  0  0  0  0  0  0  0  0
   -2.8918    5.1426    0.4194 H   0  0  0  0  0  0  0  0  0  0  0  0
   -1.2151    5.7367    0.3641 H   0  0  0  0  0  0  0  0  0  0  0  0
   -2.2983    5.0277   -3.9126 H   0  0  0  0  0  0  0  0  0  0  0  0
   -1.1987    5.8576   -1.9291 H   0  0  0  0  0  0  0  0  0  0  0  0
   -4.1379    4.2525   -0.3104 H   0  0  0  0  0  0  0  0  0  0  0  0
   -2.0211    3.5567   -1.4639 H   0  0  0  0  0  0  0  0  0  0  0  0
   -3.6899    3.9224   -3.7985 H   0  0  0  0  0  0  0  0  0  0  0  0
   -2.0324    3.2784   -3.7125 H   0  0  0  0  0  0  0  0  0  0  0  0
   -5.1550    2.2578   -0.8418 H   0  0  0  0  0  0  0  0  0  0  0  0
   -4.7953    4.7740   -1.8797 H   0  0  0  0  0  0  0  0  0  0  0  0
   -2.7182    2.1373   -2.6880 H   0  0  0  0  0  0  0  0  0  0  0  0
   -5.1722    2.6178   -2.5844 H   0  0  0  0  0  0  0  0  0  0  0  0
   -3.2943    0.9942   -4.2166 H   0  0  0  0  0  0  0  0  0  0  0  0
   -2.7404    1.7250   -0.9570 H   0  0  0  0  0  0  0  0  0  0  0  0
   -5.2629    0.2592   -0.6528 H   0  0  0  0  0  0  0  0  0  0  0  0
   -3.1111   -0.4075   -1.7365 H   0  0  0  0  0  0  0  0  0  0  0  0
   -5.6102   -1.5263   -3.1142 H   0  0  0  0  0  0  0  0  0  0  0  0
   -5.8842    0.7835   -2.2359 H   0  0  0  0  0  0  0  0  0  0  0  0
   -4.7239   -0.0628   -4.1305 H   0  0  0  0  0  0  0  0  0  0  0  0
   -3.0926   -0.7579   -3.9759 H   0  0  0  0  0  0  0  0  0  0  0  0
   -6.6685   -1.5152   -1.6829 H   0  0  0  0  0  0  0  0  0  0  0  0
   -4.9785   -2.0532   -1.5359 H   0  0  0  0  0  0  0  0  0  0  0  0
   -2.3410   10.2460    0.7170 H   0  0  0  0  0  0  0  0  0  0  0  0
   -2.1860    9.0690    2.0130 H   0  0  0  0  0  0  0  0  0  0  0  0
   -0.7190    9.8570    1.3180 H   0  0  0  0  0  0  0  0  0  0  0  0
   -2.3460    8.0200   -1.9300 H   0  0  0  0  0  0  0  0  0  0  0  0
   -2.0940    9.7190   -1.5390 H   0  0  0  0  0  0  0  0  0  0  0  0
   -0.7040    8.6980   -1.8730 H   0  0  0  0  0  0  0  0  0  0  0  0
  1 42  1  0  0  0  0
  1 43  1  0  0  0  0
  1 44  1  0  0  0  0
  1  3  1  0  0  0  0
  2 45  1  0  0  0  0
  2 46  1  0  0  0  0
  2 47  1  0  0  0  0
  2  3  1  0  0  0  0
  3  4  1  0  0  0  0
  3 17  1  0  0  0  0
  4  5  1  0  0  0  0
  4 16  1  0  0  0  0
  4 19  1  0  0  0  0
  5  6  1  0  0  0  0
  5 20  1  0  0  0  0
  5 21  1  0  0  0  0
  6  7  1  0  0  0  0
  6 18  1  0  0  0  0
  6 23  1  0  0  0  0
  7  8  1  0  0  0  0
  7  9  1  0  0  0  0
  7 25  1  0  0  0  0
  8 22  1  0  0  0  0
  8 26  1  0  0  0  0
  8 27  1  0  0  0  0
  9 10  1  0  0  0  0
  9 24  1  0  0  0  0
  9 29  1  0  0  0  0
 10 11  1  0  0  0  0
 10 28  1  0  0  0  0
 10 31  1  0  0  0  0
 11 12  1  0  0  0  0
 11 30  1  0  0  0  0
 11 33  1  0  0  0  0
 12 13  1  0  0  0  0
 12 14  1  0  0  0  0
 12 35  1  0  0  0  0
 13 15  1  0  0  0  0
 13 34  1  0  0  0  0
 13 37  1  0  0  0  0
 14 32  1  0  0  0  0
 14 38  1  0  0  0  0
 14 39  1  0  0  0  0
 15 36  1  0  0  0  0
 15 40  1  0  0  0  0
 15 41  1  0  0  0  0
M  END
$$$$
farnesyl_sat.pdb_33
 OpenBabel07241819373D
VDW energy = 83.34
 47 46  0  0  0  0  0  0  0  0999 V2000
   -1.7100    9.4390    1.0900 C   0  0  0  0  0  0  0  0  0  0  0  0
   -1.6880    8.7310   -1.4210 C   0  0  0  0  0  0  0  0  0  0  0  0
   -1.5890    8.3130    0.0530 C   0  0  0  0  0  0  0  0  0  0  0  0
   -2.7120    7.2970    0.3300 C   0  0  0  0  0  0  0  0  0  0  0  0
   -2.2234    5.8804   -0.0250 C   0  0  0  0  0  0  0  0  0  0  0  0
   -2.2112    5.7092   -1.5551 C   0  0  0  0  0  0  0  0  0  0  0  0
   -2.6879    4.2900   -1.9166 C   0  0  0  0  0  0  0  0  0  0  0  0
   -2.6764    4.1168   -3.4468 C   0  0  0  0  0  0  0  0  0  0  0  0
   -4.1181    4.0773   -1.3855 C   0  0  0  0  0  0  0  0  0  0  0  0
   -4.7996    5.4432   -1.1825 C   0  0  0  0  0  0  0  0  0  0  0  0
   -6.2883    5.2312   -0.8478 C   0  0  0  0  0  0  0  0  0  0  0  0
   -6.9812    6.5972   -0.6976 C   0  0  0  0  0  0  0  0  0  0  0  0
   -8.5048    6.4184   -0.8305 C   0  0  0  0  0  0  0  0  0  0  0  0
   -6.6529    7.1915    0.6856 C   0  0  0  0  0  0  0  0  0  0  0  0
   -8.8810    4.9591   -0.5138 C   0  0  0  0  0  0  0  0  0  0  0  0
   -2.9855    7.3343    1.3844 H   0  0  0  0  0  0  0  0  0  0  0  0
   -0.5820    7.9150    0.1740 H   0  0  0  0  0  0  0  0  0  0  0  0
   -2.8770    6.4425   -2.0092 H   0  0  0  0  0  0  0  0  0  0  0  0
   -3.5829    7.5433   -0.2787 H   0  0  0  0  0  0  0  0  0  0  0  0
   -2.8918    5.1426    0.4194 H   0  0  0  0  0  0  0  0  0  0  0  0
   -1.2151    5.7367    0.3641 H   0  0  0  0  0  0  0  0  0  0  0  0
   -2.2983    5.0277   -3.9126 H   0  0  0  0  0  0  0  0  0  0  0  0
   -1.1987    5.8576   -1.9291 H   0  0  0  0  0  0  0  0  0  0  0  0
   -4.6898    3.4890   -2.1025 H   0  0  0  0  0  0  0  0  0  0  0  0
   -2.0211    3.5567   -1.4639 H   0  0  0  0  0  0  0  0  0  0  0  0
   -3.6899    3.9224   -3.7985 H   0  0  0  0  0  0  0  0  0  0  0  0
   -2.0324    3.2784   -3.7125 H   0  0  0  0  0  0  0  0  0  0  0  0
   -4.3150    5.9735   -0.3624 H   0  0  0  0  0  0  0  0  0  0  0  0
   -4.0759    3.5485   -0.4332 H   0  0  0  0  0  0  0  0  0  0  0  0
   -6.7640    4.6678   -1.6502 H   0  0  0  0  0  0  0  0  0  0  0  0
   -4.7134    6.0317   -2.0956 H   0  0  0  0  0  0  0  0  0  0  0  0
   -5.9405    6.5457    1.1982 H   0  0  0  0  0  0  0  0  0  0  0  0
   -6.3745    4.6754    0.0862 H   0  0  0  0  0  0  0  0  0  0  0  0
   -9.0114    7.0847   -0.1318 H   0  0  0  0  0  0  0  0  0  0  0  0
   -6.6259    7.2729   -1.4758 H   0  0  0  0  0  0  0  0  0  0  0  0
   -8.3797    4.2938   -1.2173 H   0  0  0  0  0  0  0  0  0  0  0  0
   -8.8110    6.6597   -1.8483 H   0  0  0  0  0  0  0  0  0  0  0  0
   -7.5660    7.2671    1.2750 H   0  0  0  0  0  0  0  0  0  0  0  0
   -6.2184    8.1837    0.5594 H   0  0  0  0  0  0  0  0  0  0  0  0
   -9.9602    4.8344   -0.6022 H   0  0  0  0  0  0  0  0  0  0  0  0
   -8.5689    4.7159    0.5012 H   0  0  0  0  0  0  0  0  0  0  0  0
   -2.3410   10.2460    0.7170 H   0  0  0  0  0  0  0  0  0  0  0  0
   -2.1860    9.0690    2.0130 H   0  0  0  0  0  0  0  0  0  0  0  0
   -0.7190    9.8570    1.3180 H   0  0  0  0  0  0  0  0  0  0  0  0
   -2.3460    8.0200   -1.9300 H   0  0  0  0  0  0  0  0  0  0  0  0
   -2.0940    9.7190   -1.5390 H   0  0  0  0  0  0  0  0  0  0  0  0
   -0.7040    8.6980   -1.8730 H   0  0  0  0  0  0  0  0  0  0  0  0
  1 42  1  0  0  0  0
  1 43  1  0  0  0  0
  1 44  1  0  0  0  0
  1  3  1  0  0  0  0
  2 45  1  0  0  0  0
  2 46  1  0  0  0  0
  2 47  1  0  0  0  0
  2  3  1  0  0  0  0
  3  4  1  0  0  0  0
  3 17  1  0  0  0  0
  4  5  1  0  0  0  0
  4 16  1  0  0  0  0
  4 19  1  0  0  0  0
  5  6  1  0  0  0  0
  5 20  1  0  0  0  0
  5 21  1  0  0  0  0
  6  7  1  0  0  0  0
  6 18  1  0  0  0  0
  6 23  1  0  0  0  0
  7  8  1  0  0  0  0
  7  9  1  0  0  0  0
  7 25  1  0  0  0  0
  8 22  1  0  0  0  0
  8 26  1  0  0  0  0
  8 27  1  0  0  0  0
  9 10  1  0  0  0  0
  9 24  1  0  0  0  0
  9 29  1  0  0  0  0
 10 11  1  0  0  0  0
 10 28  1  0  0  0  0
 10 31  1  0  0  0  0
 11 12  1  0  0  0  0
 11 30  1  0  0  0  0
 11 33  1  0  0  0  0
 12 13  1  0  0  0  0
 12 14  1  0  0  0  0
 12 35  1  0  0  0  0
 13 15  1  0  0  0  0
 13 34  1  0  0  0  0
 13 37  1  0  0  0  0
 14 32  1  0  0  0  0
 14 38  1  0  0  0  0
 14 39  1  0  0  0  0
 15 36  1  0  0  0  0
 15 40  1  0  0  0  0
 15 41  1  0  0  0  0
M  END
$$$$
farnesyl_sat.pdb_34
 OpenBabel07241819373D
VDW energy = 83.42
 47 46  0  0  0  0  0  0  0  0999 V2000
   -1.7100    9.4390    1.0900 C   0  0  0  0  0  0  0  0  0  0  0  0
   -1.6880    8.7310   -1.4210 C   0  0  0  0  0  0  0  0  0  0  0  0
   -1.5890    8.3130    0.0530 C   0  0  0  0  0  0  0  0  0  0  0  0
   -2.7120    7.2970    0.3300 C   0  0  0  0  0  0  0  0  0  0  0  0
   -2.2234    5.8804   -0.0250 C   0  0  0  0  0  0  0  0  0  0  0  0
   -2.2112    5.7092   -1.5551 C   0  0  0  0  0  0  0  0  0  0  0  0
   -2.6879    4.2900   -1.9166 C   0  0  0  0  0  0  0  0  0  0  0  0
   -2.6764    4.1168   -3.4468 C   0  0  0  0  0  0  0  0  0  0  0  0
   -4.1181    4.0773   -1.3855 C   0  0  0  0  0  0  0  0  0  0  0  0
   -4.5660    2.6334   -1.6789 C   0  0  0  0  0  0  0  0  0  0  0  0
   -3.3268    1.7398   -1.8761 C   0  0  0  0  0  0  0  0  0  0  0  0
   -3.7746    0.3085   -2.2219 C   0  0  0  0  0  0  0  0  0  0  0  0
   -5.2032    0.3411   -2.7955 C   0  0  0  0  0  0  0  0  0  0  0  0
   -2.8154   -0.2924   -3.2673 C   0  0  0  0  0  0  0  0  0  0  0  0
   -5.6670   -1.0947   -3.1031 C   0  0  0  0  0  0  0  0  0  0  0  0
   -2.9855    7.3343    1.3844 H   0  0  0  0  0  0  0  0  0  0  0  0
   -0.5820    7.9150    0.1740 H   0  0  0  0  0  0  0  0  0  0  0  0
   -2.8770    6.4425   -2.0092 H   0  0  0  0  0  0  0  0  0  0  0  0
   -3.5829    7.5433   -0.2787 H   0  0  0  0  0  0  0  0  0  0  0  0
   -2.8918    5.1426    0.4194 H   0  0  0  0  0  0  0  0  0  0  0  0
   -1.2151    5.7367    0.3641 H   0  0  0  0  0  0  0  0  0  0  0  0
   -2.2983    5.0277   -3.9126 H   0  0  0  0  0  0  0  0  0  0  0  0
   -1.1987    5.8576   -1.9291 H   0  0  0  0  0  0  0  0  0  0  0  0
   -4.1379    4.2525   -0.3104 H   0  0  0  0  0  0  0  0  0  0  0  0
   -2.0211    3.5567   -1.4639 H   0  0  0  0  0  0  0  0  0  0  0  0
   -3.6899    3.9224   -3.7985 H   0  0  0  0  0  0  0  0  0  0  0  0
   -2.0324    3.2784   -3.7125 H   0  0  0  0  0  0  0  0  0  0  0  0
   -5.1550    2.2578   -0.8418 H   0  0  0  0  0  0  0  0  0  0  0  0
   -4.7953    4.7740   -1.8797 H   0  0  0  0  0  0  0  0  0  0  0  0
   -2.7182    2.1373   -2.6880 H   0  0  0  0  0  0  0  0  0  0  0  0
   -5.1722    2.6178   -2.5844 H   0  0  0  0  0  0  0  0  0  0  0  0
   -1.9984    0.4043   -3.4531 H   0  0  0  0  0  0  0  0  0  0  0  0
   -2.7404    1.7250   -0.9570 H   0  0  0  0  0  0  0  0  0  0  0  0
   -5.8772    0.7932   -2.0672 H   0  0  0  0  0  0  0  0  0  0  0  0
   -3.7592   -0.3051   -1.3210 H   0  0  0  0  0  0  0  0  0  0  0  0
   -4.9968   -1.5436   -3.8368 H   0  0  0  0  0  0  0  0  0  0  0  0
   -5.2127    0.9302   -3.7125 H   0  0  0  0  0  0  0  0  0  0  0  0
   -3.3566   -0.4750   -4.1950 H   0  0  0  0  0  0  0  0  0  0  0  0
   -2.4124   -1.2330   -2.8904 H   0  0  0  0  0  0  0  0  0  0  0  0
   -6.6805   -1.0715   -3.5036 H   0  0  0  0  0  0  0  0  0  0  0  0
   -5.6512   -1.6852   -2.1878 H   0  0  0  0  0  0  0  0  0  0  0  0
   -2.3410   10.2460    0.7170 H   0  0  0  0  0  0  0  0  0  0  0  0
   -2.1860    9.0690    2.0130 H   0  0  0  0  0  0  0  0  0  0  0  0
   -0.7190    9.8570    1.3180 H   0  0  0  0  0  0  0  0  0  0  0  0
   -2.3460    8.0200   -1.9300 H   0  0  0  0  0  0  0  0  0  0  0  0
   -2.0940    9.7190   -1.5390 H   0  0  0  0  0  0  0  0  0  0  0  0
   -0.7040    8.6980   -1.8730 H   0  0  0  0  0  0  0  0  0  0  0  0
  1 42  1  0  0  0  0
  1 43  1  0  0  0  0
  1 44  1  0  0  0  0
  1  3  1  0  0  0  0
  2 45  1  0  0  0  0
  2 46  1  0  0  0  0
  2 47  1  0  0  0  0
  2  3  1  0  0  0  0
  3  4  1  0  0  0  0
  3 17  1  0  0  0  0
  4  5  1  0  0  0  0
  4 16  1  0  0  0  0
  4 19  1  0  0  0  0
  5  6  1  0  0  0  0
  5 20  1  0  0  0  0
  5 21  1  0  0  0  0
  6  7  1  0  0  0  0
  6 18  1  0  0  0  0
  6 23  1  0  0  0  0
  7  8  1  0  0  0  0
  7  9  1  0  0  0  0
  7 25  1  0  0  0  0
  8 22  1  0  0  0  0
  8 26  1  0  0  0  0
  8 27  1  0  0  0  0
  9 10  1  0  0  0  0
  9 24  1  0  0  0  0
  9 29  1  0  0  0  0
 10 11  1  0  0  0  0
 10 28  1  0  0  0  0
 10 31  1  0  0  0  0
 11 12  1  0  0  0  0
 11 30  1  0  0  0  0
 11 33  1  0  0  0  0
 12 13  1  0  0  0  0
 12 14  1  0  0  0  0
 12 35  1  0  0  0  0
 13 15  1  0  0  0  0
 13 34  1  0  0  0  0
 13 37  1  0  0  0  0
 14 32  1  0  0  0  0
 14 38  1  0  0  0  0
 14 39  1  0  0  0  0
 15 36  1  0  0  0  0
 15 40  1  0  0  0  0
 15 41  1  0  0  0  0
M  END
$$$$
farnesyl_sat.pdb_35
 OpenBabel07241819373D
VDW energy = 83.65
 47 46  0  0  0  0  0  0  0  0999 V2000
   -1.7100    9.4390    1.0900 C   0  0  0  0  0  0  0  0  0  0  0  0
   -1.6880    8.7310   -1.4210 C   0  0  0  0  0  0  0  0  0  0  0  0
   -1.5890    8.3130    0.0530 C   0  0  0  0  0  0  0  0  0  0  0  0
   -2.7120    7.2970    0.3300 C   0  0  0  0  0  0  0  0  0  0  0  0
   -2.2234    5.8804   -0.0250 C   0  0  0  0  0  0  0  0  0  0  0  0
   -3.3469    4.8646    0.2523 C   0  0  0  0  0  0  0  0  0  0  0  0
   -2.7416    3.5792    0.8465 C   0  0  0  0  0  0  0  0  0  0  0  0
   -3.8638    2.5619    1.1245 C   0  0  0  0  0  0  0  0  0  0  0  0
   -2.0136    3.9143    2.1619 C   0  0  0  0  0  0  0  0  0  0  0  0
   -1.3428    2.6438    2.7164 C   0  0  0  0  0  0  0  0  0  0  0  0
   -0.4497    3.0145    3.9156 C   0  0  0  0  0  0  0  0  0  0  0  0
   -0.9201    4.3528    4.5127 C   0  0  0  0  0  0  0  0  0  0  0  0
   -0.3694    4.4994    5.9432 C   0  0  0  0  0  0  0  0  0  0  0  0
   -0.4037    5.5145    3.6423 C   0  0  0  0  0  0  0  0  0  0  0  0
   -0.0279    3.1082    6.5081 C   0  0  0  0  0  0  0  0  0  0  0  0
   -2.9855    7.3343    1.3844 H   0  0  0  0  0  0  0  0  0  0  0  0
   -0.5820    7.9150    0.1740 H   0  0  0  0  0  0  0  0  0  0  0  0
   -4.0579    5.2915    0.9589 H   0  0  0  0  0  0  0  0  0  0  0  0
   -3.5829    7.5433   -0.2787 H   0  0  0  0  0  0  0  0  0  0  0  0
   -1.3510    5.6336    0.5804 H   0  0  0  0  0  0  0  0  0  0  0  0
   -1.9538    5.8440   -1.0807 H   0  0  0  0  0  0  0  0  0  0  0  0
   -4.8190    2.9773    0.8008 H   0  0  0  0  0  0  0  0  0  0  0  0
   -3.8595    4.6268   -0.6794 H   0  0  0  0  0  0  0  0  0  0  0  0
   -1.2550    4.6740    1.9759 H   0  0  0  0  0  0  0  0  0  0  0  0
   -2.0317    3.1514    0.1390 H   0  0  0  0  0  0  0  0  0  0  0  0
   -3.9040    2.3474    2.1926 H   0  0  0  0  0  0  0  0  0  0  0  0
   -3.6634    1.6413    0.5761 H   0  0  0  0  0  0  0  0  0  0  0  0
   -2.1092    1.9385    3.0387 H   0  0  0  0  0  0  0  0  0  0  0  0
   -2.7336    4.2903    2.8888 H   0  0  0  0  0  0  0  0  0  0  0  0
   -0.5168    2.2340    4.6731 H   0  0  0  0  0  0  0  0  0  0  0  0
   -0.7330    2.1855    1.9381 H   0  0  0  0  0  0  0  0  0  0  0  0
    0.1007    5.1134    2.7637 H   0  0  0  0  0  0  0  0  0  0  0  0
    0.5842    3.1087    3.5824 H   0  0  0  0  0  0  0  0  0  0  0  0
    0.5299    5.1157    5.9252 H   0  0  0  0  0  0  0  0  0  0  0  0
   -2.0097    4.3764    4.5391 H   0  0  0  0  0  0  0  0  0  0  0  0
   -0.9291    2.4948    6.5326 H   0  0  0  0  0  0  0  0  0  0  0  0
   -1.1209    4.9733    6.5745 H   0  0  0  0  0  0  0  0  0  0  0  0
    0.2953    6.1188    4.2196 H   0  0  0  0  0  0  0  0  0  0  0  0
   -1.2450    6.1329    3.3278 H   0  0  0  0  0  0  0  0  0  0  0  0
    0.3674    3.2130    7.5185 H   0  0  0  0  0  0  0  0  0  0  0  0
    0.7184    2.6319    5.8734 H   0  0  0  0  0  0  0  0  0  0  0  0
   -2.3410   10.2460    0.7170 H   0  0  0  0  0  0  0  0  0  0  0  0
   -2.1860    9.0690    2.0130 H   0  0  0  0  0  0  0  0  0  0  0  0
   -0.7190    9.8570    1.3180 H   0  0  0  0  0  0  0  0  0  0  0  0
   -2.3460    8.0200   -1.9300 H   0  0  0  0  0  0  0  0  0  0  0  0
   -2.0940    9.7190   -1.5390 H   0  0  0  0  0  0  0  0  0  0  0  0
   -0.7040    8.6980   -1.8730 H   0  0  0  0  0  0  0  0  0  0  0  0
  1 42  1  0  0  0  0
  1 43  1  0  0  0  0
  1 44  1  0  0  0  0
  1  3  1  0  0  0  0
  2 45  1  0  0  0  0
  2 46  1  0  0  0  0
  2 47  1  0  0  0  0
  2  3  1  0  0  0  0
  3  4  1  0  0  0  0
  3 17  1  0  0  0  0
  4  5  1  0  0  0  0
  4 16  1  0  0  0  0
  4 19  1  0  0  0  0
  5  6  1  0  0  0  0
  5 20  1  0  0  0  0
  5 21  1  0  0  0  0
  6  7  1  0  0  0  0
  6 18  1  0  0  0  0
  6 23  1  0  0  0  0
  7  8  1  0  0  0  0
  7  9  1  0  0  0  0
  7 25  1  0  0  0  0
  8 22  1  0  0  0  0
  8 26  1  0  0  0  0
  8 27  1  0  0  0  0
  9 10  1  0  0  0  0
  9 24  1  0  0  0  0
  9 29  1  0  0  0  0
 10 11  1  0  0  0  0
 10 28  1  0  0  0  0
 10 31  1  0  0  0  0
 11 12  1  0  0  0  0
 11 30  1  0  0  0  0
 11 33  1  0  0  0  0
 12 13  1  0  0  0  0
 12 14  1  0  0  0  0
 12 35  1  0  0  0  0
 13 15  1  0  0  0  0
 13 34  1  0  0  0  0
 13 37  1  0  0  0  0
 14 32  1  0  0  0  0
 14 38  1  0  0  0  0
 14 39  1  0  0  0  0
 15 36  1  0  0  0  0
 15 40  1  0  0  0  0
 15 41  1  0  0  0  0
M  END
$$$$
farnesyl_sat.pdb_36
 OpenBabel07241819373D
VDW energy = 84.32
 47 46  0  0  0  0  0  0  0  0999 V2000
   -1.7100    9.4390    1.0900 C   0  0  0  0  0  0  0  0  0  0  0  0
   -1.6880    8.7310   -1.4210 C   0  0  0  0  0  0  0  0  0  0  0  0
   -1.5890    8.3130    0.0530 C   0  0  0  0  0  0  0  0  0  0  0  0
   -2.7120    7.2970    0.3300 C   0  0  0  0  0  0  0  0  0  0  0  0
   -3.1798    7.4326    1.7909 C   0  0  0  0  0  0  0  0  0  0  0  0
   -4.3030    6.4163    2.0674 C   0  0  0  0  0  0  0  0  0  0  0  0
   -5.3698    7.0633    2.9703 C   0  0  0  0  0  0  0  0  0  0  0  0
   -6.4942    6.0482    3.2480 C   0  0  0  0  0  0  0  0  0  0  0  0
   -5.9568    8.3013    2.2663 C   0  0  0  0  0  0  0  0  0  0  0  0
   -6.9675    8.9928    3.2001 C   0  0  0  0  0  0  0  0  0  0  0  0
   -7.4021   10.3361    2.5840 C   0  0  0  0  0  0  0  0  0  0  0  0
   -8.3711   11.0517    3.5420 C   0  0  0  0  0  0  0  0  0  0  0  0
   -8.4410   12.5468    3.1806 C   0  0  0  0  0  0  0  0  0  0  0  0
   -9.7740   10.4271    3.4165 C   0  0  0  0  0  0  0  0  0  0  0  0
   -7.1733   12.9482    2.4040 C   0  0  0  0  0  0  0  0  0  0  0  0
   -3.5501    7.4882   -0.3400 H   0  0  0  0  0  0  0  0  0  0  0  0
   -0.5820    7.9150    0.1740 H   0  0  0  0  0  0  0  0  0  0  0  0
   -4.7597    6.1127    1.1259 H   0  0  0  0  0  0  0  0  0  0  0  0
   -2.3373    6.2866    0.1616 H   0  0  0  0  0  0  0  0  0  0  0  0
   -3.5519    8.4430    1.9619 H   0  0  0  0  0  0  0  0  0  0  0  0
   -2.3412    7.2373    2.4596 H   0  0  0  0  0  0  0  0  0  0  0  0
   -6.2519    5.0981    2.7702 H   0  0  0  0  0  0  0  0  0  0  0  0
   -3.8868    5.5422    2.5674 H   0  0  0  0  0  0  0  0  0  0  0  0
   -5.1544    8.9962    2.0210 H   0  0  0  0  0  0  0  0  0  0  0  0
   -4.9134    7.3654    3.9125 H   0  0  0  0  0  0  0  0  0  0  0  0
   -7.4342    6.4277    2.8468 H   0  0  0  0  0  0  0  0  0  0  0  0
   -6.5916    5.8996    4.3235 H   0  0  0  0  0  0  0  0  0  0  0  0
   -7.8408    8.3529    3.3291 H   0  0  0  0  0  0  0  0  0  0  0  0
   -6.4620    7.9921    1.3512 H   0  0  0  0  0  0  0  0  0  0  0  0
   -6.5246   10.9609    2.4197 H   0  0  0  0  0  0  0  0  0  0  0  0
   -6.5031    9.1718    4.1696 H   0  0  0  0  0  0  0  0  0  0  0  0
   -9.7316    9.5720    2.7425 H   0  0  0  0  0  0  0  0  0  0  0  0
   -7.9011   10.1539    1.6318 H   0  0  0  0  0  0  0  0  0  0  0  0
   -9.3201   12.7307    2.5624 H   0  0  0  0  0  0  0  0  0  0  0  0
   -8.0162   10.9423    4.5670 H   0  0  0  0  0  0  0  0  0  0  0  0
   -6.2951   12.7708    3.0255 H   0  0  0  0  0  0  0  0  0  0  0  0
   -8.5100   13.1380    4.0937 H   0  0  0  0  0  0  0  0  0  0  0  0
  -10.4681   11.1682    3.0217 H   0  0  0  0  0  0  0  0  0  0  0  0
  -10.1133   10.0986    4.3995 H   0  0  0  0  0  0  0  0  0  0  0  0
   -7.2261   14.0052    2.1433 H   0  0  0  0  0  0  0  0  0  0  0  0
   -7.1009   12.3527    1.4947 H   0  0  0  0  0  0  0  0  0  0  0  0
   -2.3410   10.2460    0.7170 H   0  0  0  0  0  0  0  0  0  0  0  0
   -2.1860    9.0690    2.0130 H   0  0  0  0  0  0  0  0  0  0  0  0
   -0.7190    9.8570    1.3180 H   0  0  0  0  0  0  0  0  0  0  0  0
   -2.3460    8.0200   -1.9300 H   0  0  0  0  0  0  0  0  0  0  0  0
   -2.0940    9.7190   -1.5390 H   0  0  0  0  0  0  0  0  0  0  0  0
   -0.7040    8.6980   -1.8730 H   0  0  0  0  0  0  0  0  0  0  0  0
  1 42  1  0  0  0  0
  1 43  1  0  0  0  0
  1 44  1  0  0  0  0
  1  3  1  0  0  0  0
  2 45  1  0  0  0  0
  2 46  1  0  0  0  0
  2 47  1  0  0  0  0
  2  3  1  0  0  0  0
  3  4  1  0  0  0  0
  3 17  1  0  0  0  0
  4  5  1  0  0  0  0
  4 16  1  0  0  0  0
  4 19  1  0  0  0  0
  5  6  1  0  0  0  0
  5 20  1  0  0  0  0
  5 21  1  0  0  0  0
  6  7  1  0  0  0  0
  6 18  1  0  0  0  0
  6 23  1  0  0  0  0
  7  8  1  0  0  0  0
  7  9  1  0  0  0  0
  7 25  1  0  0  0  0
  8 22  1  0  0  0  0
  8 26  1  0  0  0  0
  8 27  1  0  0  0  0
  9 10  1  0  0  0  0
  9 24  1  0  0  0  0
  9 29  1  0  0  0  0
 10 11  1  0  0  0  0
 10 28  1  0  0  0  0
 10 31  1  0  0  0  0
 11 12  1  0  0  0  0
 11 30  1  0  0  0  0
 11 33  1  0  0  0  0
 12 13  1  0  0  0  0
 12 14  1  0  0  0  0
 12 35  1  0  0  0  0
 13 15  1  0  0  0  0
 13 34  1  0  0  0  0
 13 37  1  0  0  0  0
 14 32  1  0  0  0  0
 14 38  1  0  0  0  0
 14 39  1  0  0  0  0
 15 36  1  0  0  0  0
 15 40  1  0  0  0  0
 15 41  1  0  0  0  0
M  END
$$$$
farnesyl_sat.pdb_37
 OpenBabel07241819373D
VDW energy = 84.33
 47 46  0  0  0  0  0  0  0  0999 V2000
   -1.7100    9.4390    1.0900 C   0  0  0  0  0  0  0  0  0  0  0  0
   -1.6880    8.7310   -1.4210 C   0  0  0  0  0  0  0  0  0  0  0  0
   -1.5890    8.3130    0.0530 C   0  0  0  0  0  0  0  0  0  0  0  0
   -2.7120    7.2970    0.3300 C   0  0  0  0  0  0  0  0  0  0  0  0
   -2.2234    5.8804   -0.0250 C   0  0  0  0  0  0  0  0  0  0  0  0
   -2.2112    5.7092   -1.5551 C   0  0  0  0  0  0  0  0  0  0  0  0
   -2.6879    4.2900   -1.9166 C   0  0  0  0  0  0  0  0  0  0  0  0
   -2.6764    4.1168   -3.4468 C   0  0  0  0  0  0  0  0  0  0  0  0
   -4.1181    4.0773   -1.3855 C   0  0  0  0  0  0  0  0  0  0  0  0
   -4.5660    2.6334   -1.6789 C   0  0  0  0  0  0  0  0  0  0  0  0
   -3.3268    1.7398   -1.8761 C   0  0  0  0  0  0  0  0  0  0  0  0
   -3.7746    0.3085   -2.2219 C   0  0  0  0  0  0  0  0  0  0  0  0
   -2.5357   -0.5844   -2.4190 C   0  0  0  0  0  0  0  0  0  0  0  0
   -4.6348   -0.2532   -1.0736 C   0  0  0  0  0  0  0  0  0  0  0  0
   -1.3305    0.0401   -1.6919 C   0  0  0  0  0  0  0  0  0  0  0  0
   -2.9855    7.3343    1.3844 H   0  0  0  0  0  0  0  0  0  0  0  0
   -0.5820    7.9150    0.1740 H   0  0  0  0  0  0  0  0  0  0  0  0
   -2.8770    6.4425   -2.0092 H   0  0  0  0  0  0  0  0  0  0  0  0
   -3.5829    7.5433   -0.2787 H   0  0  0  0  0  0  0  0  0  0  0  0
   -2.8918    5.1426    0.4194 H   0  0  0  0  0  0  0  0  0  0  0  0
   -1.2151    5.7367    0.3641 H   0  0  0  0  0  0  0  0  0  0  0  0
   -2.2983    5.0277   -3.9126 H   0  0  0  0  0  0  0  0  0  0  0  0
   -1.1987    5.8576   -1.9291 H   0  0  0  0  0  0  0  0  0  0  0  0
   -4.1379    4.2525   -0.3104 H   0  0  0  0  0  0  0  0  0  0  0  0
   -2.0211    3.5567   -1.4639 H   0  0  0  0  0  0  0  0  0  0  0  0
   -3.6899    3.9224   -3.7985 H   0  0  0  0  0  0  0  0  0  0  0  0
   -2.0324    3.2784   -3.7125 H   0  0  0  0  0  0  0  0  0  0  0  0
   -5.1550    2.2578   -0.8418 H   0  0  0  0  0  0  0  0  0  0  0  0
   -4.7953    4.7740   -1.8797 H   0  0  0  0  0  0  0  0  0  0  0  0
   -2.7182    2.1373   -2.6880 H   0  0  0  0  0  0  0  0  0  0  0  0
   -5.1722    2.6178   -2.5844 H   0  0  0  0  0  0  0  0  0  0  0  0
   -4.7940    0.5233   -0.3260 H   0  0  0  0  0  0  0  0  0  0  0  0
   -2.7404    1.7250   -0.9570 H   0  0  0  0  0  0  0  0  0  0  0  0
   -2.7335   -1.5758   -2.0106 H   0  0  0  0  0  0  0  0  0  0  0  0
   -4.3614    0.3230   -3.1406 H   0  0  0  0  0  0  0  0  0  0  0  0
   -1.1289    1.0286   -2.1057 H   0  0  0  0  0  0  0  0  0  0  0  0
   -2.3145   -0.6683   -3.4829 H   0  0  0  0  0  0  0  0  0  0  0  0
   -4.1235   -1.0998   -0.6167 H   0  0  0  0  0  0  0  0  0  0  0  0
   -5.5972   -0.5800   -1.4688 H   0  0  0  0  0  0  0  0  0  0  0  0
   -0.4553   -0.5954   -1.8268 H   0  0  0  0  0  0  0  0  0  0  0  0
   -1.5542    0.1301   -0.6296 H   0  0  0  0  0  0  0  0  0  0  0  0
   -2.3410   10.2460    0.7170 H   0  0  0  0  0  0  0  0  0  0  0  0
   -2.1860    9.0690    2.0130 H   0  0  0  0  0  0  0  0  0  0  0  0
   -0.7190    9.8570    1.3180 H   0  0  0  0  0  0  0  0  0  0  0  0
   -2.3460    8.0200   -1.9300 H   0  0  0  0  0  0  0  0  0  0  0  0
   -2.0940    9.7190   -1.5390 H   0  0  0  0  0  0  0  0  0  0  0  0
   -0.7040    8.6980   -1.8730 H   0  0  0  0  0  0  0  0  0  0  0  0
  1 42  1  0  0  0  0
  1 43  1  0  0  0  0
  1 44  1  0  0  0  0
  1  3  1  0  0  0  0
  2 45  1  0  0  0  0
  2 46  1  0  0  0  0
  2 47  1  0  0  0  0
  2  3  1  0  0  0  0
  3  4  1  0  0  0  0
  3 17  1  0  0  0  0
  4  5  1  0  0  0  0
  4 16  1  0  0  0  0
  4 19  1  0  0  0  0
  5  6  1  0  0  0  0
  5 20  1  0  0  0  0
  5 21  1  0  0  0  0
  6  7  1  0  0  0  0
  6 18  1  0  0  0  0
  6 23  1  0  0  0  0
  7  8  1  0  0  0  0
  7  9  1  0  0  0  0
  7 25  1  0  0  0  0
  8 22  1  0  0  0  0
  8 26  1  0  0  0  0
  8 27  1  0  0  0  0
  9 10  1  0  0  0  0
  9 24  1  0  0  0  0
  9 29  1  0  0  0  0
 10 11  1  0  0  0  0
 10 28  1  0  0  0  0
 10 31  1  0  0  0  0
 11 12  1  0  0  0  0
 11 30  1  0  0  0  0
 11 33  1  0  0  0  0
 12 13  1  0  0  0  0
 12 14  1  0  0  0  0
 12 35  1  0  0  0  0
 13 15  1  0  0  0  0
 13 34  1  0  0  0  0
 13 37  1  0  0  0  0
 14 32  1  0  0  0  0
 14 38  1  0  0  0  0
 14 39  1  0  0  0  0
 15 36  1  0  0  0  0
 15 40  1  0  0  0  0
 15 41  1  0  0  0  0
M  END
$$$$
farnesyl_sat.pdb_38
 OpenBabel07241819373D
VDW energy = 84.52
 47 46  0  0  0  0  0  0  0  0999 V2000
   -1.7100    9.4390    1.0900 C   0  0  0  0  0  0  0  0  0  0  0  0
   -1.6880    8.7310   -1.4210 C   0  0  0  0  0  0  0  0  0  0  0  0
   -1.5890    8.3130    0.0530 C   0  0  0  0  0  0  0  0  0  0  0  0
   -2.7120    7.2970    0.3300 C   0  0  0  0  0  0  0  0  0  0  0  0
   -2.2234    5.8804   -0.0250 C   0  0  0  0  0  0  0  0  0  0  0  0
   -2.2112    5.7092   -1.5551 C   0  0  0  0  0  0  0  0  0  0  0  0
   -2.6879    4.2900   -1.9166 C   0  0  0  0  0  0  0  0  0  0  0  0
   -2.6764    4.1168   -3.4468 C   0  0  0  0  0  0  0  0  0  0  0  0
   -4.1181    4.0773   -1.3855 C   0  0  0  0  0  0  0  0  0  0  0  0
   -4.5660    2.6334   -1.6789 C   0  0  0  0  0  0  0  0  0  0  0  0
   -3.3268    1.7398   -1.8761 C   0  0  0  0  0  0  0  0  0  0  0  0
   -3.7746    0.3085   -2.2219 C   0  0  0  0  0  0  0  0  0  0  0  0
   -2.5357   -0.5844   -2.4190 C   0  0  0  0  0  0  0  0  0  0  0  0
   -4.6348   -0.2532   -1.0736 C   0  0  0  0  0  0  0  0  0  0  0  0
   -1.3174    0.2938   -2.7589 C   0  0  0  0  0  0  0  0  0  0  0  0
   -2.9855    7.3343    1.3844 H   0  0  0  0  0  0  0  0  0  0  0  0
   -0.5820    7.9150    0.1740 H   0  0  0  0  0  0  0  0  0  0  0  0
   -2.8770    6.4425   -2.0092 H   0  0  0  0  0  0  0  0  0  0  0  0
   -3.5829    7.5433   -0.2787 H   0  0  0  0  0  0  0  0  0  0  0  0
   -2.8918    5.1426    0.4194 H   0  0  0  0  0  0  0  0  0  0  0  0
   -1.2151    5.7367    0.3641 H   0  0  0  0  0  0  0  0  0  0  0  0
   -2.2983    5.0277   -3.9126 H   0  0  0  0  0  0  0  0  0  0  0  0
   -1.1987    5.8576   -1.9291 H   0  0  0  0  0  0  0  0  0  0  0  0
   -4.1379    4.2525   -0.3104 H   0  0  0  0  0  0  0  0  0  0  0  0
   -2.0211    3.5567   -1.4639 H   0  0  0  0  0  0  0  0  0  0  0  0
   -3.6899    3.9224   -3.7985 H   0  0  0  0  0  0  0  0  0  0  0  0
   -2.0324    3.2784   -3.7125 H   0  0  0  0  0  0  0  0  0  0  0  0
   -5.1550    2.2578   -0.8418 H   0  0  0  0  0  0  0  0  0  0  0  0
   -4.7953    4.7740   -1.8797 H   0  0  0  0  0  0  0  0  0  0  0  0
   -2.7182    2.1373   -2.6880 H   0  0  0  0  0  0  0  0  0  0  0  0
   -5.1722    2.6178   -2.5844 H   0  0  0  0  0  0  0  0  0  0  0  0
   -4.7940    0.5233   -0.3260 H   0  0  0  0  0  0  0  0  0  0  0  0
   -2.7404    1.7250   -0.9570 H   0  0  0  0  0  0  0  0  0  0  0  0
   -2.3390   -1.1408   -1.5021 H   0  0  0  0  0  0  0  0  0  0  0  0
   -4.3614    0.3230   -3.1406 H   0  0  0  0  0  0  0  0  0  0  0  0
   -1.5120    0.8445   -3.6797 H   0  0  0  0  0  0  0  0  0  0  0  0
   -2.7185   -1.2835   -3.2350 H   0  0  0  0  0  0  0  0  0  0  0  0
   -4.1235   -1.0998   -0.6167 H   0  0  0  0  0  0  0  0  0  0  0  0
   -5.5972   -0.5800   -1.4688 H   0  0  0  0  0  0  0  0  0  0  0  0
   -0.4395   -0.3382   -2.8925 H   0  0  0  0  0  0  0  0  0  0  0  0
   -1.1388    0.9970   -1.9463 H   0  0  0  0  0  0  0  0  0  0  0  0
   -2.3410   10.2460    0.7170 H   0  0  0  0  0  0  0  0  0  0  0  0
   -2.1860    9.0690    2.0130 H   0  0  0  0  0  0  0  0  0  0  0  0
   -0.7190    9.8570    1.3180 H   0  0  0  0  0  0  0  0  0  0  0  0
   -2.3460    8.0200   -1.9300 H   0  0  0  0  0  0  0  0  0  0  0  0
   -2.0940    9.7190   -1.5390 H   0  0  0  0  0  0  0  0  0  0  0  0
   -0.7040    8.6980   -1.8730 H   0  0  0  0  0  0  0  0  0  0  0  0
  1 42  1  0  0  0  0
  1 43  1  0  0  0  0
  1 44  1  0  0  0  0
  1  3  1  0  0  0  0
  2 45  1  0  0  0  0
  2 46  1  0  0  0  0
  2 47  1  0  0  0  0
  2  3  1  0  0  0  0
  3  4  1  0  0  0  0
  3 17  1  0  0  0  0
  4  5  1  0  0  0  0
  4 16  1  0  0  0  0
  4 19  1  0  0  0  0
  5  6  1  0  0  0  0
  5 20  1  0  0  0  0
  5 21  1  0  0  0  0
  6  7  1  0  0  0  0
  6 18  1  0  0  0  0
  6 23  1  0  0  0  0
  7  8  1  0  0  0  0
  7  9  1  0  0  0  0
  7 25  1  0  0  0  0
  8 22  1  0  0  0  0
  8 26  1  0  0  0  0
  8 27  1  0  0  0  0
  9 10  1  0  0  0  0
  9 24  1  0  0  0  0
  9 29  1  0  0  0  0
 10 11  1  0  0  0  0
 10 28  1  0  0  0  0
 10 31  1  0  0  0  0
 11 12  1  0  0  0  0
 11 30  1  0  0  0  0
 11 33  1  0  0  0  0
 12 13  1  0  0  0  0
 12 14  1  0  0  0  0
 12 35  1  0  0  0  0
 13 15  1  0  0  0  0
 13 34  1  0  0  0  0
 13 37  1  0  0  0  0
 14 32  1  0  0  0  0
 14 38  1  0  0  0  0
 14 39  1  0  0  0  0
 15 36  1  0  0  0  0
 15 40  1  0  0  0  0
 15 41  1  0  0  0  0
M  END
$$$$
farnesyl_sat.pdb_39
 OpenBabel07241819373D
VDW energy = 85.02
 47 46  0  0  0  0  0  0  0  0999 V2000
   -1.7100    9.4390    1.0900 C   0  0  0  0  0  0  0  0  0  0  0  0
   -1.6880    8.7310   -1.4210 C   0  0  0  0  0  0  0  0  0  0  0  0
   -1.5890    8.3130    0.0530 C   0  0  0  0  0  0  0  0  0  0  0  0
   -2.7120    7.2970    0.3300 C   0  0  0  0  0  0  0  0  0  0  0  0
   -2.2234    5.8804   -0.0250 C   0  0  0  0  0  0  0  0  0  0  0  0
   -2.2112    5.7092   -1.5551 C   0  0  0  0  0  0  0  0  0  0  0  0
   -2.6879    4.2900   -1.9166 C   0  0  0  0  0  0  0  0  0  0  0  0
   -2.4882    3.3561   -0.7085 C   0  0  0  0  0  0  0  0  0  0  0  0
   -1.8739    3.7638   -3.1138 C   0  0  0  0  0  0  0  0  0  0  0  0
   -2.4018    2.3767   -3.5246 C   0  0  0  0  0  0  0  0  0  0  0  0
   -1.7301    1.9389   -4.8399 C   0  0  0  0  0  0  0  0  0  0  0  0
   -2.2970    0.5769   -5.2784 C   0  0  0  0  0  0  0  0  0  0  0  0
   -3.6762    0.3607   -4.6287 C   0  0  0  0  0  0  0  0  0  0  0  0
   -2.4422    0.5496   -6.8121 C   0  0  0  0  0  0  0  0  0  0  0  0
   -4.2253   -1.0196   -5.0344 C   0  0  0  0  0  0  0  0  0  0  0  0
   -2.9855    7.3343    1.3844 H   0  0  0  0  0  0  0  0  0  0  0  0
   -0.5820    7.9150    0.1740 H   0  0  0  0  0  0  0  0  0  0  0  0
   -2.8770    6.4425   -2.0092 H   0  0  0  0  0  0  0  0  0  0  0  0
   -3.5829    7.5433   -0.2787 H   0  0  0  0  0  0  0  0  0  0  0  0
   -2.8918    5.1426    0.4194 H   0  0  0  0  0  0  0  0  0  0  0  0
   -1.2151    5.7367    0.3641 H   0  0  0  0  0  0  0  0  0  0  0  0
   -2.0905    3.9279    0.1308 H   0  0  0  0  0  0  0  0  0  0  0  0
   -1.1987    5.8576   -1.9291 H   0  0  0  0  0  0  0  0  0  0  0  0
   -1.9713    4.4526   -3.9523 H   0  0  0  0  0  0  0  0  0  0  0  0
   -3.7444    4.3185   -2.1820 H   0  0  0  0  0  0  0  0  0  0  0  0
   -1.7876    2.5637   -0.9732 H   0  0  0  0  0  0  0  0  0  0  0  0
   -3.4452    2.9162   -0.4276 H   0  0  0  0  0  0  0  0  0  0  0  0
   -2.1728    1.6534   -2.7416 H   0  0  0  0  0  0  0  0  0  0  0  0
   -0.8244    3.6825   -2.8305 H   0  0  0  0  0  0  0  0  0  0  0  0
   -1.9272    2.6814   -5.6128 H   0  0  0  0  0  0  0  0  0  0  0  0
   -3.4811    2.4263   -3.6676 H   0  0  0  0  0  0  0  0  0  0  0  0
   -2.0312    1.4672   -7.2320 H   0  0  0  0  0  0  0  0  0  0  0  0
   -0.6541    1.8522   -4.6863 H   0  0  0  0  0  0  0  0  0  0  0  0
   -3.5787    0.4092   -3.5439 H   0  0  0  0  0  0  0  0  0  0  0  0
   -1.6195   -0.2173   -4.9644 H   0  0  0  0  0  0  0  0  0  0  0  0
   -4.3294   -1.0648   -6.1189 H   0  0  0  0  0  0  0  0  0  0  0  0
   -4.3620    1.1378   -4.9661 H   0  0  0  0  0  0  0  0  0  0  0  0
   -3.4959    0.4678   -7.0763 H   0  0  0  0  0  0  0  0  0  0  0  0
   -1.8996   -0.3078   -7.2118 H   0  0  0  0  0  0  0  0  0  0  0  0
   -5.1989   -1.1745   -4.5695 H   0  0  0  0  0  0  0  0  0  0  0  0
   -3.5366   -1.7958   -4.7031 H   0  0  0  0  0  0  0  0  0  0  0  0
   -2.3410   10.2460    0.7170 H   0  0  0  0  0  0  0  0  0  0  0  0
   -2.1860    9.0690    2.0130 H   0  0  0  0  0  0  0  0  0  0  0  0
   -0.7190    9.8570    1.3180 H   0  0  0  0  0  0  0  0  0  0  0  0
   -2.3460    8.0200   -1.9300 H   0  0  0  0  0  0  0  0  0  0  0  0
   -2.0940    9.7190   -1.5390 H   0  0  0  0  0  0  0  0  0  0  0  0
   -0.7040    8.6980   -1.8730 H   0  0  0  0  0  0  0  0  0  0  0  0
  1 42  1  0  0  0  0
  1 43  1  0  0  0  0
  1 44  1  0  0  0  0
  1  3  1  0  0  0  0
  2 45  1  0  0  0  0
  2 46  1  0  0  0  0
  2 47  1  0  0  0  0
  2  3  1  0  0  0  0
  3  4  1  0  0  0  0
  3 17  1  0  0  0  0
  4  5  1  0  0  0  0
  4 16  1  0  0  0  0
  4 19  1  0  0  0  0
  5  6  1  0  0  0  0
  5 20  1  0  0  0  0
  5 21  1  0  0  0  0
  6  7  1  0  0  0  0
  6 18  1  0  0  0  0
  6 23  1  0  0  0  0
  7  8  1  0  0  0  0
  7  9  1  0  0  0  0
  7 25  1  0  0  0  0
  8 22  1  0  0  0  0
  8 26  1  0  0  0  0
  8 27  1  0  0  0  0
  9 10  1  0  0  0  0
  9 24  1  0  0  0  0
  9 29  1  0  0  0  0
 10 11  1  0  0  0  0
 10 28  1  0  0  0  0
 10 31  1  0  0  0  0
 11 12  1  0  0  0  0
 11 30  1  0  0  0  0
 11 33  1  0  0  0  0
 12 13  1  0  0  0  0
 12 14  1  0  0  0  0
 12 35  1  0  0  0  0
 13 15  1  0  0  0  0
 13 34  1  0  0  0  0
 13 37  1  0  0  0  0
 14 32  1  0  0  0  0
 14 38  1  0  0  0  0
 14 39  1  0  0  0  0
 15 36  1  0  0  0  0
 15 40  1  0  0  0  0
 15 41  1  0  0  0  0
M  END
$$$$
farnesyl_sat.pdb_40
 OpenBabel07241819373D
VDW energy = 87.43
 47 46  0  0  0  0  0  0  0  0999 V2000
   -1.7100    9.4390    1.0900 C   0  0  0  0  0  0  0  0  0  0  0  0
   -1.6880    8.7310   -1.4210 C   0  0  0  0  0  0  0  0  0  0  0  0
   -1.5890    8.3130    0.0530 C   0  0  0  0  0  0  0  0  0  0  0  0
   -2.7120    7.2970    0.3300 C   0  0  0  0  0  0  0  0  0  0  0  0
   -2.2234    5.8804   -0.0250 C   0  0  0  0  0  0  0  0  0  0  0  0
   -3.3469    4.8646    0.2523 C   0  0  0  0  0  0  0  0  0  0  0  0
   -2.7416    3.5792    0.8465 C   0  0  0  0  0  0  0  0  0  0  0  0
   -3.8638    2.5619    1.1245 C   0  0  0  0  0  0  0  0  0  0  0  0
   -2.0136    3.9143    2.1619 C   0  0  0  0  0  0  0  0  0  0  0  0
   -2.5696    5.2304    2.7365 C   0  0  0  0  0  0  0  0  0  0  0  0
   -1.9917    5.4619    4.1455 C   0  0  0  0  0  0  0  0  0  0  0  0
   -1.5275    4.1194    4.7380 C   0  0  0  0  0  0  0  0  0  0  0  0
   -0.5511    4.3802    5.8997 C   0  0  0  0  0  0  0  0  0  0  0  0
   -2.7484    3.3374    5.2594 C   0  0  0  0  0  0  0  0  0  0  0  0
   -0.0866    3.0371    6.4926 C   0  0  0  0  0  0  0  0  0  0  0  0
   -2.9855    7.3343    1.3844 H   0  0  0  0  0  0  0  0  0  0  0  0
   -0.5820    7.9150    0.1740 H   0  0  0  0  0  0  0  0  0  0  0  0
   -4.0579    5.2915    0.9589 H   0  0  0  0  0  0  0  0  0  0  0  0
   -3.5829    7.5433   -0.2787 H   0  0  0  0  0  0  0  0  0  0  0  0
   -1.3510    5.6336    0.5804 H   0  0  0  0  0  0  0  0  0  0  0  0
   -1.9538    5.8440   -1.0807 H   0  0  0  0  0  0  0  0  0  0  0  0
   -4.8190    2.9773    0.8008 H   0  0  0  0  0  0  0  0  0  0  0  0
   -3.8595    4.6268   -0.6794 H   0  0  0  0  0  0  0  0  0  0  0  0
   -2.1691    3.1099    2.8802 H   0  0  0  0  0  0  0  0  0  0  0  0
   -2.0317    3.1514    0.1390 H   0  0  0  0  0  0  0  0  0  0  0  0
   -3.9040    2.3474    2.1926 H   0  0  0  0  0  0  0  0  0  0  0  0
   -3.6634    1.6413    0.5761 H   0  0  0  0  0  0  0  0  0  0  0  0
   -2.2867    6.0593    2.0873 H   0  0  0  0  0  0  0  0  0  0  0  0
   -0.9469    4.0262    1.9672 H   0  0  0  0  0  0  0  0  0  0  0  0
   -1.1447    6.1446    4.0828 H   0  0  0  0  0  0  0  0  0  0  0  0
   -3.6562    5.1708    2.7954 H   0  0  0  0  0  0  0  0  0  0  0  0
   -3.6602    3.8797    5.0105 H   0  0  0  0  0  0  0  0  0  0  0  0
   -2.7603    5.8954    4.7860 H   0  0  0  0  0  0  0  0  0  0  0  0
    0.3130    4.9336    5.5311 H   0  0  0  0  0  0  0  0  0  0  0  0
   -1.0258    3.5354    3.9663 H   0  0  0  0  0  0  0  0  0  0  0  0
   -0.9504    2.4872    6.8675 H   0  0  0  0  0  0  0  0  0  0  0  0
   -1.0529    4.9637    6.6714 H   0  0  0  0  0  0  0  0  0  0  0  0
   -2.6743    3.2259    6.3406 H   0  0  0  0  0  0  0  0  0  0  0  0
   -2.7731    2.3519    4.7932 H   0  0  0  0  0  0  0  0  0  0  0  0
    0.6092    3.2221    7.3110 H   0  0  0  0  0  0  0  0  0  0  0  0
    0.4091    2.4511    5.7195 H   0  0  0  0  0  0  0  0  0  0  0  0
   -2.3410   10.2460    0.7170 H   0  0  0  0  0  0  0  0  0  0  0  0
   -2.1860    9.0690    2.0130 H   0  0  0  0  0  0  0  0  0  0  0  0
   -0.7190    9.8570    1.3180 H   0  0  0  0  0  0  0  0  0  0  0  0
   -2.3460    8.0200   -1.9300 H   0  0  0  0  0  0  0  0  0  0  0  0
   -2.0940    9.7190   -1.5390 H   0  0  0  0  0  0  0  0  0  0  0  0
   -0.7040    8.6980   -1.8730 H   0  0  0  0  0  0  0  0  0  0  0  0
  1 42  1  0  0  0  0
  1 43  1  0  0  0  0
  1 44  1  0  0  0  0
  1  3  1  0  0  0  0
  2 45  1  0  0  0  0
  2 46  1  0  0  0  0
  2 47  1  0  0  0  0
  2  3  1  0  0  0  0
  3  4  1  0  0  0  0
  3 17  1  0  0  0  0
  4  5  1  0  0  0  0
  4 16  1  0  0  0  0
  4 19  1  0  0  0  0
  5  6  1  0  0  0  0
  5 20  1  0  0  0  0
  5 21  1  0  0  0  0
  6  7  1  0  0  0  0
  6 18  1  0  0  0  0
  6 23  1  0  0  0  0
  7  8  1  0  0  0  0
  7  9  1  0  0  0  0
  7 25  1  0  0  0  0
  8 22  1  0  0  0  0
  8 26  1  0  0  0  0
  8 27  1  0  0  0  0
  9 10  1  0  0  0  0
  9 24  1  0  0  0  0
  9 29  1  0  0  0  0
 10 11  1  0  0  0  0
 10 28  1  0  0  0  0
 10 31  1  0  0  0  0
 11 12  1  0  0  0  0
 11 30  1  0  0  0  0
 11 33  1  0  0  0  0
 12 13  1  0  0  0  0
 12 14  1  0  0  0  0
 12 35  1  0  0  0  0
 13 15  1  0  0  0  0
 13 34  1  0  0  0  0
 13 37  1  0  0  0  0
 14 32  1  0  0  0  0
 14 38  1  0  0  0  0
 14 39  1  0  0  0  0
 15 36  1  0  0  0  0
 15 40  1  0  0  0  0
 15 41  1  0  0  0  0
M  END
$$$$
farnesyl_sat.pdb_41
 OpenBabel07241819373D
VDW energy = 87.52
 47 46  0  0  0  0  0  0  0  0999 V2000
   -1.7100    9.4390    1.0900 C   0  0  0  0  0  0  0  0  0  0  0  0
   -1.6880    8.7310   -1.4210 C   0  0  0  0  0  0  0  0  0  0  0  0
   -1.5890    8.3130    0.0530 C   0  0  0  0  0  0  0  0  0  0  0  0
   -2.7120    7.2970    0.3300 C   0  0  0  0  0  0  0  0  0  0  0  0
   -2.2234    5.8804   -0.0250 C   0  0  0  0  0  0  0  0  0  0  0  0
   -2.2112    5.7092   -1.5551 C   0  0  0  0  0  0  0  0  0  0  0  0
   -2.6879    4.2900   -1.9166 C   0  0  0  0  0  0  0  0  0  0  0  0
   -2.6764    4.1168   -3.4468 C   0  0  0  0  0  0  0  0  0  0  0  0
   -4.1181    4.0773   -1.3855 C   0  0  0  0  0  0  0  0  0  0  0  0
   -4.7996    5.4432   -1.1825 C   0  0  0  0  0  0  0  0  0  0  0  0
   -6.2883    5.2312   -0.8478 C   0  0  0  0  0  0  0  0  0  0  0  0
   -6.9812    6.5972   -0.6976 C   0  0  0  0  0  0  0  0  0  0  0  0
   -6.1694    7.6707   -1.4457 C   0  0  0  0  0  0  0  0  0  0  0  0
   -8.4014    6.5219   -1.2904 C   0  0  0  0  0  0  0  0  0  0  0  0
   -6.8401    9.0445   -1.2611 C   0  0  0  0  0  0  0  0  0  0  0  0
   -2.9855    7.3343    1.3844 H   0  0  0  0  0  0  0  0  0  0  0  0
   -0.5820    7.9150    0.1740 H   0  0  0  0  0  0  0  0  0  0  0  0
   -2.8770    6.4425   -2.0092 H   0  0  0  0  0  0  0  0  0  0  0  0
   -3.5829    7.5433   -0.2787 H   0  0  0  0  0  0  0  0  0  0  0  0
   -2.8918    5.1426    0.4194 H   0  0  0  0  0  0  0  0  0  0  0  0
   -1.2151    5.7367    0.3641 H   0  0  0  0  0  0  0  0  0  0  0  0
   -2.2983    5.0277   -3.9126 H   0  0  0  0  0  0  0  0  0  0  0  0
   -1.1987    5.8576   -1.9291 H   0  0  0  0  0  0  0  0  0  0  0  0
   -4.6898    3.4890   -2.1025 H   0  0  0  0  0  0  0  0  0  0  0  0
   -2.0211    3.5567   -1.4639 H   0  0  0  0  0  0  0  0  0  0  0  0
   -3.6899    3.9224   -3.7985 H   0  0  0  0  0  0  0  0  0  0  0  0
   -2.0324    3.2784   -3.7125 H   0  0  0  0  0  0  0  0  0  0  0  0
   -4.3150    5.9735   -0.3624 H   0  0  0  0  0  0  0  0  0  0  0  0
   -4.0759    3.5485   -0.4332 H   0  0  0  0  0  0  0  0  0  0  0  0
   -6.7640    4.6678   -1.6502 H   0  0  0  0  0  0  0  0  0  0  0  0
   -4.7134    6.0317   -2.0956 H   0  0  0  0  0  0  0  0  0  0  0  0
   -8.6117    5.4985   -1.5997 H   0  0  0  0  0  0  0  0  0  0  0  0
   -6.3745    4.6754    0.0862 H   0  0  0  0  0  0  0  0  0  0  0  0
   -5.1555    7.7040   -1.0460 H   0  0  0  0  0  0  0  0  0  0  0  0
   -7.0430    6.8595    0.3588 H   0  0  0  0  0  0  0  0  0  0  0  0
   -7.8515    9.0126   -1.6674 H   0  0  0  0  0  0  0  0  0  0  0  0
   -6.1329    7.4241   -2.5067 H   0  0  0  0  0  0  0  0  0  0  0  0
   -8.4715    7.1848   -2.1521 H   0  0  0  0  0  0  0  0  0  0  0  0
   -9.1256    6.8294   -0.5353 H   0  0  0  0  0  0  0  0  0  0  0  0
   -6.2618    9.8049   -1.7859 H   0  0  0  0  0  0  0  0  0  0  0  0
   -6.8827    9.2880   -0.2001 H   0  0  0  0  0  0  0  0  0  0  0  0
   -2.3410   10.2460    0.7170 H   0  0  0  0  0  0  0  0  0  0  0  0
   -2.1860    9.0690    2.0130 H   0  0  0  0  0  0  0  0  0  0  0  0
   -0.7190    9.8570    1.3180 H   0  0  0  0  0  0  0  0  0  0  0  0
   -2.3460    8.0200   -1.9300 H   0  0  0  0  0  0  0  0  0  0  0  0
   -2.0940    9.7190   -1.5390 H   0  0  0  0  0  0  0  0  0  0  0  0
   -0.7040    8.6980   -1.8730 H   0  0  0  0  0  0  0  0  0  0  0  0
  1 42  1  0  0  0  0
  1 43  1  0  0  0  0
  1 44  1  0  0  0  0
  1  3  1  0  0  0  0
  2 45  1  0  0  0  0
  2 46  1  0  0  0  0
  2 47  1  0  0  0  0
  2  3  1  0  0  0  0
  3  4  1  0  0  0  0
  3 17  1  0  0  0  0
  4  5  1  0  0  0  0
  4 16  1  0  0  0  0
  4 19  1  0  0  0  0
  5  6  1  0  0  0  0
  5 20  1  0  0  0  0
  5 21  1  0  0  0  0
  6  7  1  0  0  0  0
  6 18  1  0  0  0  0
  6 23  1  0  0  0  0
  7  8  1  0  0  0  0
  7  9  1  0  0  0  0
  7 25  1  0  0  0  0
  8 22  1  0  0  0  0
  8 26  1  0  0  0  0
  8 27  1  0  0  0  0
  9 10  1  0  0  0  0
  9 24  1  0  0  0  0
  9 29  1  0  0  0  0
 10 11  1  0  0  0  0
 10 28  1  0  0  0  0
 10 31  1  0  0  0  0
 11 12  1  0  0  0  0
 11 30  1  0  0  0  0
 11 33  1  0  0  0  0
 12 13  1  0  0  0  0
 12 14  1  0  0  0  0
 12 35  1  0  0  0  0
 13 15  1  0  0  0  0
 13 34  1  0  0  0  0
 13 37  1  0  0  0  0
 14 32  1  0  0  0  0
 14 38  1  0  0  0  0
 14 39  1  0  0  0  0
 15 36  1  0  0  0  0
 15 40  1  0  0  0  0
 15 41  1  0  0  0  0
M  END
$$$$
farnesyl_sat.pdb_42
 OpenBabel07241819373D
VDW energy = 88.31
 47 46  0  0  0  0  0  0  0  0999 V2000
   -1.7100    9.4390    1.0900 C   0  0  0  0  0  0  0  0  0  0  0  0
   -1.6880    8.7310   -1.4210 C   0  0  0  0  0  0  0  0  0  0  0  0
   -1.5890    8.3130    0.0530 C   0  0  0  0  0  0  0  0  0  0  0  0
   -2.7120    7.2970    0.3300 C   0  0  0  0  0  0  0  0  0  0  0  0
   -2.2234    5.8804   -0.0250 C   0  0  0  0  0  0  0  0  0  0  0  0
   -2.2112    5.7092   -1.5551 C   0  0  0  0  0  0  0  0  0  0  0  0
   -2.6879    4.2900   -1.9166 C   0  0  0  0  0  0  0  0  0  0  0  0
   -2.4882    3.3561   -0.7085 C   0  0  0  0  0  0  0  0  0  0  0  0
   -1.8739    3.7638   -3.1138 C   0  0  0  0  0  0  0  0  0  0  0  0
   -2.4018    2.3767   -3.5246 C   0  0  0  0  0  0  0  0  0  0  0  0
   -1.7301    1.9389   -4.8399 C   0  0  0  0  0  0  0  0  0  0  0  0
   -2.2970    0.5769   -5.2784 C   0  0  0  0  0  0  0  0  0  0  0  0
   -2.0025    0.3545   -6.7733 C   0  0  0  0  0  0  0  0  0  0  0  0
   -1.6379   -0.5448   -4.4530 C   0  0  0  0  0  0  0  0  0  0  0  0
   -1.7637    1.7128   -7.4583 C   0  0  0  0  0  0  0  0  0  0  0  0
   -2.9855    7.3343    1.3844 H   0  0  0  0  0  0  0  0  0  0  0  0
   -0.5820    7.9150    0.1740 H   0  0  0  0  0  0  0  0  0  0  0  0
   -2.8770    6.4425   -2.0092 H   0  0  0  0  0  0  0  0  0  0  0  0
   -3.5829    7.5433   -0.2787 H   0  0  0  0  0  0  0  0  0  0  0  0
   -2.8918    5.1426    0.4194 H   0  0  0  0  0  0  0  0  0  0  0  0
   -1.2151    5.7367    0.3641 H   0  0  0  0  0  0  0  0  0  0  0  0
   -2.0905    3.9279    0.1308 H   0  0  0  0  0  0  0  0  0  0  0  0
   -1.1987    5.8576   -1.9291 H   0  0  0  0  0  0  0  0  0  0  0  0
   -1.9713    4.4526   -3.9523 H   0  0  0  0  0  0  0  0  0  0  0  0
   -3.7444    4.3185   -2.1820 H   0  0  0  0  0  0  0  0  0  0  0  0
   -1.7876    2.5637   -0.9732 H   0  0  0  0  0  0  0  0  0  0  0  0
   -3.4452    2.9162   -0.4276 H   0  0  0  0  0  0  0  0  0  0  0  0
   -2.1728    1.6534   -2.7416 H   0  0  0  0  0  0  0  0  0  0  0  0
   -0.8244    3.6825   -2.8305 H   0  0  0  0  0  0  0  0  0  0  0  0
   -1.9272    2.6814   -5.6128 H   0  0  0  0  0  0  0  0  0  0  0  0
   -3.4811    2.4263   -3.6676 H   0  0  0  0  0  0  0  0  0  0  0  0
   -0.9889   -0.1051   -3.6962 H   0  0  0  0  0  0  0  0  0  0  0  0
   -0.6541    1.8522   -4.6863 H   0  0  0  0  0  0  0  0  0  0  0  0
   -1.1138   -0.2682   -6.8801 H   0  0  0  0  0  0  0  0  0  0  0  0
   -3.3748    0.5618   -5.1147 H   0  0  0  0  0  0  0  0  0  0  0  0
   -2.6554    2.3323   -7.3574 H   0  0  0  0  0  0  0  0  0  0  0  0
   -2.8521   -0.1434   -7.2404 H   0  0  0  0  0  0  0  0  0  0  0  0
   -1.0497   -1.1832   -5.1113 H   0  0  0  0  0  0  0  0  0  0  0  0
   -2.4122   -1.1392   -3.9668 H   0  0  0  0  0  0  0  0  0  0  0  0
   -1.5494    1.5545   -8.5152 H   0  0  0  0  0  0  0  0  0  0  0  0
   -0.9187    2.2134   -6.9870 H   0  0  0  0  0  0  0  0  0  0  0  0
   -2.3410   10.2460    0.7170 H   0  0  0  0  0  0  0  0  0  0  0  0
   -2.1860    9.0690    2.0130 H   0  0  0  0  0  0  0  0  0  0  0  0
   -0.7190    9.8570    1.3180 H   0  0  0  0  0  0  0  0  0  0  0  0
   -2.3460    8.0200   -1.9300 H   0  0  0  0  0  0  0  0  0  0  0  0
   -2.0940    9.7190   -1.5390 H   0  0  0  0  0  0  0  0  0  0  0  0
   -0.7040    8.6980   -1.8730 H   0  0  0  0  0  0  0  0  0  0  0  0
  1 42  1  0  0  0  0
  1 43  1  0  0  0  0
  1 44  1  0  0  0  0
  1  3  1  0  0  0  0
  2 45  1  0  0  0  0
  2 46  1  0  0  0  0
  2 47  1  0  0  0  0
  2  3  1  0  0  0  0
  3  4  1  0  0  0  0
  3 17  1  0  0  0  0
  4  5  1  0  0  0  0
  4 16  1  0  0  0  0
  4 19  1  0  0  0  0
  5  6  1  0  0  0  0
  5 20  1  0  0  0  0
  5 21  1  0  0  0  0
  6  7  1  0  0  0  0
  6 18  1  0  0  0  0
  6 23  1  0  0  0  0
  7  8  1  0  0  0  0
  7  9  1  0  0  0  0
  7 25  1  0  0  0  0
  8 22  1  0  0  0  0
  8 26  1  0  0  0  0
  8 27  1  0  0  0  0
  9 10  1  0  0  0  0
  9 24  1  0  0  0  0
  9 29  1  0  0  0  0
 10 11  1  0  0  0  0
 10 28  1  0  0  0  0
 10 31  1  0  0  0  0
 11 12  1  0  0  0  0
 11 30  1  0  0  0  0
 11 33  1  0  0  0  0
 12 13  1  0  0  0  0
 12 14  1  0  0  0  0
 12 35  1  0  0  0  0
 13 15  1  0  0  0  0
 13 34  1  0  0  0  0
 13 37  1  0  0  0  0
 14 32  1  0  0  0  0
 14 38  1  0  0  0  0
 14 39  1  0  0  0  0
 15 36  1  0  0  0  0
 15 40  1  0  0  0  0
 15 41  1  0  0  0  0
M  END
$$$$
farnesyl_sat.pdb_43
 OpenBabel07241819373D
VDW energy = 88.42
 47 46  0  0  0  0  0  0  0  0999 V2000
   -1.7100    9.4390    1.0900 C   0  0  0  0  0  0  0  0  0  0  0  0
   -1.6880    8.7310   -1.4210 C   0  0  0  0  0  0  0  0  0  0  0  0
   -1.5890    8.3130    0.0530 C   0  0  0  0  0  0  0  0  0  0  0  0
   -2.7120    7.2970    0.3300 C   0  0  0  0  0  0  0  0  0  0  0  0
   -2.2234    5.8804   -0.0250 C   0  0  0  0  0  0  0  0  0  0  0  0
   -2.2112    5.7092   -1.5551 C   0  0  0  0  0  0  0  0  0  0  0  0
   -2.6879    4.2900   -1.9166 C   0  0  0  0  0  0  0  0  0  0  0  0
   -2.6764    4.1168   -3.4468 C   0  0  0  0  0  0  0  0  0  0  0  0
   -4.1181    4.0773   -1.3855 C   0  0  0  0  0  0  0  0  0  0  0  0
   -4.7996    5.4432   -1.1825 C   0  0  0  0  0  0  0  0  0  0  0  0
   -6.2883    5.2312   -0.8478 C   0  0  0  0  0  0  0  0  0  0  0  0
   -6.9812    6.5972   -0.6976 C   0  0  0  0  0  0  0  0  0  0  0  0
   -5.9294    7.6747   -0.3755 C   0  0  0  0  0  0  0  0  0  0  0  0
   -7.6991    6.9575   -2.0124 C   0  0  0  0  0  0  0  0  0  0  0  0
   -6.6273    9.0340   -0.1844 C   0  0  0  0  0  0  0  0  0  0  0  0
   -2.9855    7.3343    1.3844 H   0  0  0  0  0  0  0  0  0  0  0  0
   -0.5820    7.9150    0.1740 H   0  0  0  0  0  0  0  0  0  0  0  0
   -2.8770    6.4425   -2.0092 H   0  0  0  0  0  0  0  0  0  0  0  0
   -3.5829    7.5433   -0.2787 H   0  0  0  0  0  0  0  0  0  0  0  0
   -2.8918    5.1426    0.4194 H   0  0  0  0  0  0  0  0  0  0  0  0
   -1.2151    5.7367    0.3641 H   0  0  0  0  0  0  0  0  0  0  0  0
   -2.2983    5.0277   -3.9126 H   0  0  0  0  0  0  0  0  0  0  0  0
   -1.1987    5.8576   -1.9291 H   0  0  0  0  0  0  0  0  0  0  0  0
   -4.6898    3.4890   -2.1025 H   0  0  0  0  0  0  0  0  0  0  0  0
   -2.0211    3.5567   -1.4639 H   0  0  0  0  0  0  0  0  0  0  0  0
   -3.6899    3.9224   -3.7985 H   0  0  0  0  0  0  0  0  0  0  0  0
   -2.0324    3.2784   -3.7125 H   0  0  0  0  0  0  0  0  0  0  0  0
   -4.3150    5.9735   -0.3624 H   0  0  0  0  0  0  0  0  0  0  0  0
   -4.0759    3.5485   -0.4332 H   0  0  0  0  0  0  0  0  0  0  0  0
   -6.7640    4.6678   -1.6502 H   0  0  0  0  0  0  0  0  0  0  0  0
   -4.7134    6.0317   -2.0956 H   0  0  0  0  0  0  0  0  0  0  0  0
   -7.6187    6.1243   -2.7100 H   0  0  0  0  0  0  0  0  0  0  0  0
   -6.3745    4.6754    0.0862 H   0  0  0  0  0  0  0  0  0  0  0  0
   -5.4011    7.4050    0.5394 H   0  0  0  0  0  0  0  0  0  0  0  0
   -7.7102    6.5483    0.1116 H   0  0  0  0  0  0  0  0  0  0  0  0
   -7.1495    9.3065   -1.1020 H   0  0  0  0  0  0  0  0  0  0  0  0
   -5.2177    7.7443   -1.1980 H   0  0  0  0  0  0  0  0  0  0  0  0
   -7.2377    7.8432   -2.4479 H   0  0  0  0  0  0  0  0  0  0  0  0
   -8.7509    7.1594   -1.8070 H   0  0  0  0  0  0  0  0  0  0  0  0
   -5.8830    9.7952    0.0494 H   0  0  0  0  0  0  0  0  0  0  0  0
   -7.3435    8.9626    0.6333 H   0  0  0  0  0  0  0  0  0  0  0  0
   -2.3410   10.2460    0.7170 H   0  0  0  0  0  0  0  0  0  0  0  0
   -2.1860    9.0690    2.0130 H   0  0  0  0  0  0  0  0  0  0  0  0
   -0.7190    9.8570    1.3180 H   0  0  0  0  0  0  0  0  0  0  0  0
   -2.3460    8.0200   -1.9300 H   0  0  0  0  0  0  0  0  0  0  0  0
   -2.0940    9.7190   -1.5390 H   0  0  0  0  0  0  0  0  0  0  0  0
   -0.7040    8.6980   -1.8730 H   0  0  0  0  0  0  0  0  0  0  0  0
  1 42  1  0  0  0  0
  1 43  1  0  0  0  0
  1 44  1  0  0  0  0
  1  3  1  0  0  0  0
  2 45  1  0  0  0  0
  2 46  1  0  0  0  0
  2 47  1  0  0  0  0
  2  3  1  0  0  0  0
  3  4  1  0  0  0  0
  3 17  1  0  0  0  0
  4  5  1  0  0  0  0
  4 16  1  0  0  0  0
  4 19  1  0  0  0  0
  5  6  1  0  0  0  0
  5 20  1  0  0  0  0
  5 21  1  0  0  0  0
  6  7  1  0  0  0  0
  6 18  1  0  0  0  0
  6 23  1  0  0  0  0
  7  8  1  0  0  0  0
  7  9  1  0  0  0  0
  7 25  1  0  0  0  0
  8 22  1  0  0  0  0
  8 26  1  0  0  0  0
  8 27  1  0  0  0  0
  9 10  1  0  0  0  0
  9 24  1  0  0  0  0
  9 29  1  0  0  0  0
 10 11  1  0  0  0  0
 10 28  1  0  0  0  0
 10 31  1  0  0  0  0
 11 12  1  0  0  0  0
 11 30  1  0  0  0  0
 11 33  1  0  0  0  0
 12 13  1  0  0  0  0
 12 14  1  0  0  0  0
 12 35  1  0  0  0  0
 13 15  1  0  0  0  0
 13 34  1  0  0  0  0
 13 37  1  0  0  0  0
 14 32  1  0  0  0  0
 14 38  1  0  0  0  0
 14 39  1  0  0  0  0
 15 36  1  0  0  0  0
 15 40  1  0  0  0  0
 15 41  1  0  0  0  0
M  END
$$$$
farnesyl_sat.pdb_44
 OpenBabel07241819373D
VDW energy = 89.77
 47 46  0  0  0  0  0  0  0  0999 V2000
   -1.7100    9.4390    1.0900 C   0  0  0  0  0  0  0  0  0  0  0  0
   -1.6880    8.7310   -1.4210 C   0  0  0  0  0  0  0  0  0  0  0  0
   -1.5890    8.3130    0.0530 C   0  0  0  0  0  0  0  0  0  0  0  0
   -2.7120    7.2970    0.3300 C   0  0  0  0  0  0  0  0  0  0  0  0
   -2.2234    5.8804   -0.0250 C   0  0  0  0  0  0  0  0  0  0  0  0
   -3.3469    4.8646    0.2523 C   0  0  0  0  0  0  0  0  0  0  0  0
   -4.7062    5.5885    0.2466 C   0  0  0  0  0  0  0  0  0  0  0  0
   -5.8313    4.5742    0.5237 C   0  0  0  0  0  0  0  0  0  0  0  0
   -4.9330    6.2455   -1.1280 C   0  0  0  0  0  0  0  0  0  0  0  0
   -6.2558    7.0339   -1.1092 C   0  0  0  0  0  0  0  0  0  0  0  0
   -6.3850    7.8539   -2.4068 C   0  0  0  0  0  0  0  0  0  0  0  0
   -7.6811    8.6829   -2.3643 C   0  0  0  0  0  0  0  0  0  0  0  0
   -7.5955    9.8242   -3.3945 C   0  0  0  0  0  0  0  0  0  0  0  0
   -8.8821    7.7778   -2.6996 C   0  0  0  0  0  0  0  0  0  0  0  0
   -6.5614    9.4636   -4.4770 C   0  0  0  0  0  0  0  0  0  0  0  0
   -2.9855    7.3343    1.3844 H   0  0  0  0  0  0  0  0  0  0  0  0
   -0.5820    7.9150    0.1740 H   0  0  0  0  0  0  0  0  0  0  0  0
   -3.3417    4.0958   -0.5198 H   0  0  0  0  0  0  0  0  0  0  0  0
   -3.5829    7.5433   -0.2787 H   0  0  0  0  0  0  0  0  0  0  0  0
   -1.3510    5.6336    0.5804 H   0  0  0  0  0  0  0  0  0  0  0  0
   -1.9538    5.8440   -1.0807 H   0  0  0  0  0  0  0  0  0  0  0  0
   -5.3974    3.5883    0.6953 H   0  0  0  0  0  0  0  0  0  0  0  0
   -3.1865    4.4024    1.2258 H   0  0  0  0  0  0  0  0  0  0  0  0
   -4.1091    6.9234   -1.3488 H   0  0  0  0  0  0  0  0  0  0  0  0
   -4.7119    6.3563    1.0199 H   0  0  0  0  0  0  0  0  0  0  0  0
   -6.5023    4.5316   -0.3345 H   0  0  0  0  0  0  0  0  0  0  0  0
   -6.3901    4.8840    1.4070 H   0  0  0  0  0  0  0  0  0  0  0  0
   -7.0926    6.3392   -1.0338 H   0  0  0  0  0  0  0  0  0  0  0  0
   -4.9830    5.4726   -1.8951 H   0  0  0  0  0  0  0  0  0  0  0  0
   -5.5288    8.5213   -2.5012 H   0  0  0  0  0  0  0  0  0  0  0  0
   -6.2654    7.7071   -0.2522 H   0  0  0  0  0  0  0  0  0  0  0  0
   -8.5422    6.7479   -2.8048 H   0  0  0  0  0  0  0  0  0  0  0  0
   -6.4139    7.1778   -3.2617 H   0  0  0  0  0  0  0  0  0  0  0  0
   -8.5718    9.9698   -3.8577 H   0  0  0  0  0  0  0  0  0  0  0  0
   -7.8115    9.1033   -1.3670 H   0  0  0  0  0  0  0  0  0  0  0  0
   -5.5839    9.3251   -4.0140 H   0  0  0  0  0  0  0  0  0  0  0  0
   -7.2914   10.7431   -2.8935 H   0  0  0  0  0  0  0  0  0  0  0  0
   -9.3374    8.1084   -3.6325 H   0  0  0  0  0  0  0  0  0  0  0  0
   -9.6162    7.8379   -1.8955 H   0  0  0  0  0  0  0  0  0  0  0  0
   -6.5055   10.2691   -5.2092 H   0  0  0  0  0  0  0  0  0  0  0  0
   -6.8619    8.5415   -4.9732 H   0  0  0  0  0  0  0  0  0  0  0  0
   -2.3410   10.2460    0.7170 H   0  0  0  0  0  0  0  0  0  0  0  0
   -2.1860    9.0690    2.0130 H   0  0  0  0  0  0  0  0  0  0  0  0
   -0.7190    9.8570    1.3180 H   0  0  0  0  0  0  0  0  0  0  0  0
   -2.3460    8.0200   -1.9300 H   0  0  0  0  0  0  0  0  0  0  0  0
   -2.0940    9.7190   -1.5390 H   0  0  0  0  0  0  0  0  0  0  0  0
   -0.7040    8.6980   -1.8730 H   0  0  0  0  0  0  0  0  0  0  0  0
  1 42  1  0  0  0  0
  1 43  1  0  0  0  0
  1 44  1  0  0  0  0
  1  3  1  0  0  0  0
  2 45  1  0  0  0  0
  2 46  1  0  0  0  0
  2 47  1  0  0  0  0
  2  3  1  0  0  0  0
  3  4  1  0  0  0  0
  3 17  1  0  0  0  0
  4  5  1  0  0  0  0
  4 16  1  0  0  0  0
  4 19  1  0  0  0  0
  5  6  1  0  0  0  0
  5 20  1  0  0  0  0
  5 21  1  0  0  0  0
  6  7  1  0  0  0  0
  6 18  1  0  0  0  0
  6 23  1  0  0  0  0
  7  8  1  0  0  0  0
  7  9  1  0  0  0  0
  7 25  1  0  0  0  0
  8 22  1  0  0  0  0
  8 26  1  0  0  0  0
  8 27  1  0  0  0  0
  9 10  1  0  0  0  0
  9 24  1  0  0  0  0
  9 29  1  0  0  0  0
 10 11  1  0  0  0  0
 10 28  1  0  0  0  0
 10 31  1  0  0  0  0
 11 12  1  0  0  0  0
 11 30  1  0  0  0  0
 11 33  1  0  0  0  0
 12 13  1  0  0  0  0
 12 14  1  0  0  0  0
 12 35  1  0  0  0  0
 13 15  1  0  0  0  0
 13 34  1  0  0  0  0
 13 37  1  0  0  0  0
 14 32  1  0  0  0  0
 14 38  1  0  0  0  0
 14 39  1  0  0  0  0
 15 36  1  0  0  0  0
 15 40  1  0  0  0  0
 15 41  1  0  0  0  0
M  END
$$$$
farnesyl_sat.pdb_45
 OpenBabel07241819373D
VDW energy = 90.21
 47 46  0  0  0  0  0  0  0  0999 V2000
   -1.7100    9.4390    1.0900 C   0  0  0  0  0  0  0  0  0  0  0  0
   -1.6880    8.7310   -1.4210 C   0  0  0  0  0  0  0  0  0  0  0  0
   -1.5890    8.3130    0.0530 C   0  0  0  0  0  0  0  0  0  0  0  0
   -2.7120    7.2970    0.3300 C   0  0  0  0  0  0  0  0  0  0  0  0
   -2.2234    5.8804   -0.0250 C   0  0  0  0  0  0  0  0  0  0  0  0
   -3.3469    4.8646    0.2523 C   0  0  0  0  0  0  0  0  0  0  0  0
   -4.7062    5.5885    0.2466 C   0  0  0  0  0  0  0  0  0  0  0  0
   -5.8313    4.5742    0.5237 C   0  0  0  0  0  0  0  0  0  0  0  0
   -4.9330    6.2455   -1.1280 C   0  0  0  0  0  0  0  0  0  0  0  0
   -6.2558    7.0339   -1.1092 C   0  0  0  0  0  0  0  0  0  0  0  0
   -6.3850    7.8539   -2.4068 C   0  0  0  0  0  0  0  0  0  0  0  0
   -7.6811    8.6829   -2.3643 C   0  0  0  0  0  0  0  0  0  0  0  0
   -8.6682    8.0434   -1.3705 C   0  0  0  0  0  0  0  0  0  0  0  0
   -7.3580   10.1204   -1.9137 C   0  0  0  0  0  0  0  0  0  0  0  0
   -9.9651    8.8727   -1.3280 C   0  0  0  0  0  0  0  0  0  0  0  0
   -2.9855    7.3343    1.3844 H   0  0  0  0  0  0  0  0  0  0  0  0
   -0.5820    7.9150    0.1740 H   0  0  0  0  0  0  0  0  0  0  0  0
   -3.3417    4.0958   -0.5198 H   0  0  0  0  0  0  0  0  0  0  0  0
   -3.5829    7.5433   -0.2787 H   0  0  0  0  0  0  0  0  0  0  0  0
   -1.3510    5.6336    0.5804 H   0  0  0  0  0  0  0  0  0  0  0  0
   -1.9538    5.8440   -1.0807 H   0  0  0  0  0  0  0  0  0  0  0  0
   -5.3974    3.5883    0.6953 H   0  0  0  0  0  0  0  0  0  0  0  0
   -3.1865    4.4024    1.2258 H   0  0  0  0  0  0  0  0  0  0  0  0
   -4.1091    6.9234   -1.3488 H   0  0  0  0  0  0  0  0  0  0  0  0
   -4.7119    6.3563    1.0199 H   0  0  0  0  0  0  0  0  0  0  0  0
   -6.5023    4.5316   -0.3345 H   0  0  0  0  0  0  0  0  0  0  0  0
   -6.3901    4.8840    1.4070 H   0  0  0  0  0  0  0  0  0  0  0  0
   -7.0926    6.3392   -1.0338 H   0  0  0  0  0  0  0  0  0  0  0  0
   -4.9830    5.4726   -1.8951 H   0  0  0  0  0  0  0  0  0  0  0  0
   -5.5288    8.5213   -2.5012 H   0  0  0  0  0  0  0  0  0  0  0  0
   -6.2654    7.7071   -0.2522 H   0  0  0  0  0  0  0  0  0  0  0  0
   -6.2792   10.2353   -1.8126 H   0  0  0  0  0  0  0  0  0  0  0  0
   -6.4139    7.1778   -3.2617 H   0  0  0  0  0  0  0  0  0  0  0  0
   -8.8970    7.0260   -1.6891 H   0  0  0  0  0  0  0  0  0  0  0  0
   -8.1302    8.7068   -3.3574 H   0  0  0  0  0  0  0  0  0  0  0  0
   -9.7365    9.8880   -1.0024 H   0  0  0  0  0  0  0  0  0  0  0  0
   -8.2194    8.0200   -0.3776 H   0  0  0  0  0  0  0  0  0  0  0  0
   -7.8369   10.3174   -0.9552 H   0  0  0  0  0  0  0  0  0  0  0  0
   -7.7304   10.8254   -2.6577 H   0  0  0  0  0  0  0  0  0  0  0  0
  -10.6657    8.4163   -0.6288 H   0  0  0  0  0  0  0  0  0  0  0  0
  -10.4101    8.9017   -2.3218 H   0  0  0  0  0  0  0  0  0  0  0  0
   -2.3410   10.2460    0.7170 H   0  0  0  0  0  0  0  0  0  0  0  0
   -2.1860    9.0690    2.0130 H   0  0  0  0  0  0  0  0  0  0  0  0
   -0.7190    9.8570    1.3180 H   0  0  0  0  0  0  0  0  0  0  0  0
   -2.3460    8.0200   -1.9300 H   0  0  0  0  0  0  0  0  0  0  0  0
   -2.0940    9.7190   -1.5390 H   0  0  0  0  0  0  0  0  0  0  0  0
   -0.7040    8.6980   -1.8730 H   0  0  0  0  0  0  0  0  0  0  0  0
  1 42  1  0  0  0  0
  1 43  1  0  0  0  0
  1 44  1  0  0  0  0
  1  3  1  0  0  0  0
  2 45  1  0  0  0  0
  2 46  1  0  0  0  0
  2 47  1  0  0  0  0
  2  3  1  0  0  0  0
  3  4  1  0  0  0  0
  3 17  1  0  0  0  0
  4  5  1  0  0  0  0
  4 16  1  0  0  0  0
  4 19  1  0  0  0  0
  5  6  1  0  0  0  0
  5 20  1  0  0  0  0
  5 21  1  0  0  0  0
  6  7  1  0  0  0  0
  6 18  1  0  0  0  0
  6 23  1  0  0  0  0
  7  8  1  0  0  0  0
  7  9  1  0  0  0  0
  7 25  1  0  0  0  0
  8 22  1  0  0  0  0
  8 26  1  0  0  0  0
  8 27  1  0  0  0  0
  9 10  1  0  0  0  0
  9 24  1  0  0  0  0
  9 29  1  0  0  0  0
 10 11  1  0  0  0  0
 10 28  1  0  0  0  0
 10 31  1  0  0  0  0
 11 12  1  0  0  0  0
 11 30  1  0  0  0  0
 11 33  1  0  0  0  0
 12 13  1  0  0  0  0
 12 14  1  0  0  0  0
 12 35  1  0  0  0  0
 13 15  1  0  0  0  0
 13 34  1  0  0  0  0
 13 37  1  0  0  0  0
 14 32  1  0  0  0  0
 14 38  1  0  0  0  0
 14 39  1  0  0  0  0
 15 36  1  0  0  0  0
 15 40  1  0  0  0  0
 15 41  1  0  0  0  0
M  END
$$$$
farnesyl_sat.pdb_46
 OpenBabel07241819373D
VDW energy = 90.35
 47 46  0  0  0  0  0  0  0  0999 V2000
   -1.7100    9.4390    1.0900 C   0  0  0  0  0  0  0  0  0  0  0  0
   -1.6880    8.7310   -1.4210 C   0  0  0  0  0  0  0  0  0  0  0  0
   -1.5890    8.3130    0.0530 C   0  0  0  0  0  0  0  0  0  0  0  0
   -2.7120    7.2970    0.3300 C   0  0  0  0  0  0  0  0  0  0  0  0
   -2.2234    5.8804   -0.0250 C   0  0  0  0  0  0  0  0  0  0  0  0
   -3.3469    4.8646    0.2523 C   0  0  0  0  0  0  0  0  0  0  0  0
   -2.7416    3.5792    0.8465 C   0  0  0  0  0  0  0  0  0  0  0  0
   -1.2149    3.5873    0.6442 C   0  0  0  0  0  0  0  0  0  0  0  0
   -3.3476    2.3516    0.1404 C   0  0  0  0  0  0  0  0  0  0  0  0
   -2.8007    1.0650    0.7863 C   0  0  0  0  0  0  0  0  0  0  0  0
   -3.5541   -0.1546    0.2224 C   0  0  0  0  0  0  0  0  0  0  0  0
   -3.0446   -1.4354    0.9070 C   0  0  0  0  0  0  0  0  0  0  0  0
   -4.0726   -2.5655    0.7139 C   0  0  0  0  0  0  0  0  0  0  0  0
   -1.6996   -1.8528    0.2819 C   0  0  0  0  0  0  0  0  0  0  0  0
   -3.5823   -3.8354    1.4337 C   0  0  0  0  0  0  0  0  0  0  0  0
   -2.9855    7.3343    1.3844 H   0  0  0  0  0  0  0  0  0  0  0  0
   -0.5820    7.9150    0.1740 H   0  0  0  0  0  0  0  0  0  0  0  0
   -4.0579    5.2915    0.9589 H   0  0  0  0  0  0  0  0  0  0  0  0
   -3.5829    7.5433   -0.2787 H   0  0  0  0  0  0  0  0  0  0  0  0
   -1.3510    5.6336    0.5804 H   0  0  0  0  0  0  0  0  0  0  0  0
   -1.9538    5.8440   -1.0807 H   0  0  0  0  0  0  0  0  0  0  0  0
   -0.9176    4.5186    0.1605 H   0  0  0  0  0  0  0  0  0  0  0  0
   -3.8595    4.6268   -0.6794 H   0  0  0  0  0  0  0  0  0  0  0  0
   -4.4326    2.3738    0.2370 H   0  0  0  0  0  0  0  0  0  0  0  0
   -2.9658    3.5310    1.9118 H   0  0  0  0  0  0  0  0  0  0  0  0
   -0.9266    2.7436    0.0167 H   0  0  0  0  0  0  0  0  0  0  0  0
   -0.7200    3.5062    1.6120 H   0  0  0  0  0  0  0  0  0  0  0  0
   -1.7376    0.9696    0.5642 H   0  0  0  0  0  0  0  0  0  0  0  0
   -3.0764    2.3704   -0.9152 H   0  0  0  0  0  0  0  0  0  0  0  0
   -4.6214   -0.0408    0.4108 H   0  0  0  0  0  0  0  0  0  0  0  0
   -2.9426    1.1116    1.8658 H   0  0  0  0  0  0  0  0  0  0  0  0
   -1.3842   -1.0982   -0.4381 H   0  0  0  0  0  0  0  0  0  0  0  0
   -3.3808   -0.2231   -0.8519 H   0  0  0  0  0  0  0  0  0  0  0  0
   -5.0325   -2.2588    1.1302 H   0  0  0  0  0  0  0  0  0  0  0  0
   -2.9066   -1.2484    1.9721 H   0  0  0  0  0  0  0  0  0  0  0  0
   -2.6257   -4.1457    1.0121 H   0  0  0  0  0  0  0  0  0  0  0  0
   -4.1884   -2.7728   -0.3498 H   0  0  0  0  0  0  0  0  0  0  0  0
   -1.8147   -2.8118   -0.2221 H   0  0  0  0  0  0  0  0  0  0  0  0
   -0.9480   -1.9427    1.0669 H   0  0  0  0  0  0  0  0  0  0  0  0
   -4.3131   -4.6333    1.3017 H   0  0  0  0  0  0  0  0  0  0  0  0
   -3.4601   -3.6264    2.4958 H   0  0  0  0  0  0  0  0  0  0  0  0
   -2.3410   10.2460    0.7170 H   0  0  0  0  0  0  0  0  0  0  0  0
   -2.1860    9.0690    2.0130 H   0  0  0  0  0  0  0  0  0  0  0  0
   -0.7190    9.8570    1.3180 H   0  0  0  0  0  0  0  0  0  0  0  0
   -2.3460    8.0200   -1.9300 H   0  0  0  0  0  0  0  0  0  0  0  0
   -2.0940    9.7190   -1.5390 H   0  0  0  0  0  0  0  0  0  0  0  0
   -0.7040    8.6980   -1.8730 H   0  0  0  0  0  0  0  0  0  0  0  0
  1 42  1  0  0  0  0
  1 43  1  0  0  0  0
  1 44  1  0  0  0  0
  1  3  1  0  0  0  0
  2 45  1  0  0  0  0
  2 46  1  0  0  0  0
  2 47  1  0  0  0  0
  2  3  1  0  0  0  0
  3  4  1  0  0  0  0
  3 17  1  0  0  0  0
  4  5  1  0  0  0  0
  4 16  1  0  0  0  0
  4 19  1  0  0  0  0
  5  6  1  0  0  0  0
  5 20  1  0  0  0  0
  5 21  1  0  0  0  0
  6  7  1  0  0  0  0
  6 18  1  0  0  0  0
  6 23  1  0  0  0  0
  7  8  1  0  0  0  0
  7  9  1  0  0  0  0
  7 25  1  0  0  0  0
  8 22  1  0  0  0  0
  8 26  1  0  0  0  0
  8 27  1  0  0  0  0
  9 10  1  0  0  0  0
  9 24  1  0  0  0  0
  9 29  1  0  0  0  0
 10 11  1  0  0  0  0
 10 28  1  0  0  0  0
 10 31  1  0  0  0  0
 11 12  1  0  0  0  0
 11 30  1  0  0  0  0
 11 33  1  0  0  0  0
 12 13  1  0  0  0  0
 12 14  1  0  0  0  0
 12 35  1  0  0  0  0
 13 15  1  0  0  0  0
 13 34  1  0  0  0  0
 13 37  1  0  0  0  0
 14 32  1  0  0  0  0
 14 38  1  0  0  0  0
 14 39  1  0  0  0  0
 15 36  1  0  0  0  0
 15 40  1  0  0  0  0
 15 41  1  0  0  0  0
M  END
$$$$
farnesyl_sat.pdb_47
 OpenBabel07241819373D
VDW energy = 90.54
 47 46  0  0  0  0  0  0  0  0999 V2000
   -1.7100    9.4390    1.0900 C   0  0  0  0  0  0  0  0  0  0  0  0
   -1.6880    8.7310   -1.4210 C   0  0  0  0  0  0  0  0  0  0  0  0
   -1.5890    8.3130    0.0530 C   0  0  0  0  0  0  0  0  0  0  0  0
   -2.7120    7.2970    0.3300 C   0  0  0  0  0  0  0  0  0  0  0  0
   -2.2234    5.8804   -0.0250 C   0  0  0  0  0  0  0  0  0  0  0  0
   -3.3469    4.8646    0.2523 C   0  0  0  0  0  0  0  0  0  0  0  0
   -4.7062    5.5885    0.2466 C   0  0  0  0  0  0  0  0  0  0  0  0
   -5.8313    4.5742    0.5237 C   0  0  0  0  0  0  0  0  0  0  0  0
   -4.9330    6.2455   -1.1280 C   0  0  0  0  0  0  0  0  0  0  0  0
   -6.2558    7.0339   -1.1092 C   0  0  0  0  0  0  0  0  0  0  0  0
   -6.3850    7.8539   -2.4068 C   0  0  0  0  0  0  0  0  0  0  0  0
   -7.6811    8.6829   -2.3643 C   0  0  0  0  0  0  0  0  0  0  0  0
   -8.1232    8.8716   -0.9015 C   0  0  0  0  0  0  0  0  0  0  0  0
   -7.4319   10.0609   -3.0070 C   0  0  0  0  0  0  0  0  0  0  0  0
   -9.4199    9.7009   -0.8588 C   0  0  0  0  0  0  0  0  0  0  0  0
   -2.9855    7.3343    1.3844 H   0  0  0  0  0  0  0  0  0  0  0  0
   -0.5820    7.9150    0.1740 H   0  0  0  0  0  0  0  0  0  0  0  0
   -3.3417    4.0958   -0.5198 H   0  0  0  0  0  0  0  0  0  0  0  0
   -3.5829    7.5433   -0.2787 H   0  0  0  0  0  0  0  0  0  0  0  0
   -1.3510    5.6336    0.5804 H   0  0  0  0  0  0  0  0  0  0  0  0
   -1.9538    5.8440   -1.0807 H   0  0  0  0  0  0  0  0  0  0  0  0
   -5.3974    3.5883    0.6953 H   0  0  0  0  0  0  0  0  0  0  0  0
   -3.1865    4.4024    1.2258 H   0  0  0  0  0  0  0  0  0  0  0  0
   -4.1091    6.9234   -1.3488 H   0  0  0  0  0  0  0  0  0  0  0  0
   -4.7119    6.3563    1.0199 H   0  0  0  0  0  0  0  0  0  0  0  0
   -6.5023    4.5316   -0.3345 H   0  0  0  0  0  0  0  0  0  0  0  0
   -6.3901    4.8840    1.4070 H   0  0  0  0  0  0  0  0  0  0  0  0
   -7.0926    6.3392   -1.0338 H   0  0  0  0  0  0  0  0  0  0  0  0
   -4.9830    5.4726   -1.8951 H   0  0  0  0  0  0  0  0  0  0  0  0
   -5.5288    8.5213   -2.5012 H   0  0  0  0  0  0  0  0  0  0  0  0
   -6.2654    7.7071   -0.2522 H   0  0  0  0  0  0  0  0  0  0  0  0
   -6.4223   10.0936   -3.4157 H   0  0  0  0  0  0  0  0  0  0  0  0
   -6.4139    7.1778   -3.2617 H   0  0  0  0  0  0  0  0  0  0  0  0
   -8.2995    7.8966   -0.4463 H   0  0  0  0  0  0  0  0  0  0  0  0
   -8.4641    8.1622   -2.9158 H   0  0  0  0  0  0  0  0  0  0  0  0
   -9.2409   10.6785   -1.3077 H   0  0  0  0  0  0  0  0  0  0  0  0
   -7.3405    9.3926   -0.3503 H   0  0  0  0  0  0  0  0  0  0  0  0
   -7.5455   10.8395   -2.2535 H   0  0  0  0  0  0  0  0  0  0  0  0
   -8.1537   10.2224   -3.8083 H   0  0  0  0  0  0  0  0  0  0  0  0
   -9.7357    9.8292    0.1765 H   0  0  0  0  0  0  0  0  0  0  0  0
  -10.2003    9.1833   -1.4154 H   0  0  0  0  0  0  0  0  0  0  0  0
   -2.3410   10.2460    0.7170 H   0  0  0  0  0  0  0  0  0  0  0  0
   -2.1860    9.0690    2.0130 H   0  0  0  0  0  0  0  0  0  0  0  0
   -0.7190    9.8570    1.3180 H   0  0  0  0  0  0  0  0  0  0  0  0
   -2.3460    8.0200   -1.9300 H   0  0  0  0  0  0  0  0  0  0  0  0
   -2.0940    9.7190   -1.5390 H   0  0  0  0  0  0  0  0  0  0  0  0
   -0.7040    8.6980   -1.8730 H   0  0  0  0  0  0  0  0  0  0  0  0
  1 42  1  0  0  0  0
  1 43  1  0  0  0  0
  1 44  1  0  0  0  0
  1  3  1  0  0  0  0
  2 45  1  0  0  0  0
  2 46  1  0  0  0  0
  2 47  1  0  0  0  0
  2  3  1  0  0  0  0
  3  4  1  0  0  0  0
  3 17  1  0  0  0  0
  4  5  1  0  0  0  0
  4 16  1  0  0  0  0
  4 19  1  0  0  0  0
  5  6  1  0  0  0  0
  5 20  1  0  0  0  0
  5 21  1  0  0  0  0
  6  7  1  0  0  0  0
  6 18  1  0  0  0  0
  6 23  1  0  0  0  0
  7  8  1  0  0  0  0
  7  9  1  0  0  0  0
  7 25  1  0  0  0  0
  8 22  1  0  0  0  0
  8 26  1  0  0  0  0
  8 27  1  0  0  0  0
  9 10  1  0  0  0  0
  9 24  1  0  0  0  0
  9 29  1  0  0  0  0
 10 11  1  0  0  0  0
 10 28  1  0  0  0  0
 10 31  1  0  0  0  0
 11 12  1  0  0  0  0
 11 30  1  0  0  0  0
 11 33  1  0  0  0  0
 12 13  1  0  0  0  0
 12 14  1  0  0  0  0
 12 35  1  0  0  0  0
 13 15  1  0  0  0  0
 13 34  1  0  0  0  0
 13 37  1  0  0  0  0
 14 32  1  0  0  0  0
 14 38  1  0  0  0  0
 14 39  1  0  0  0  0
 15 36  1  0  0  0  0
 15 40  1  0  0  0  0
 15 41  1  0  0  0  0
M  END
$$$$
farnesyl_sat.pdb_48
 OpenBabel07241819373D
VDW energy = 92.02
 47 46  0  0  0  0  0  0  0  0999 V2000
   -1.7100    9.4390    1.0900 C   0  0  0  0  0  0  0  0  0  0  0  0
   -1.6880    8.7310   -1.4210 C   0  0  0  0  0  0  0  0  0  0  0  0
   -1.5890    8.3130    0.0530 C   0  0  0  0  0  0  0  0  0  0  0  0
   -2.7120    7.2970    0.3300 C   0  0  0  0  0  0  0  0  0  0  0  0
   -3.8451    7.9836    1.1150 C   0  0  0  0  0  0  0  0  0  0  0  0
   -4.9680    6.9671    1.3918 C   0  0  0  0  0  0  0  0  0  0  0  0
   -6.3355    7.6590    1.2404 C   0  0  0  0  0  0  0  0  0  0  0  0
   -7.4600    6.6438    1.5169 C   0  0  0  0  0  0  0  0  0  0  0  0
   -6.4783    8.2075   -0.1919 C   0  0  0  0  0  0  0  0  0  0  0  0
   -7.8121    8.9663   -0.3213 C   0  0  0  0  0  0  0  0  0  0  0  0
   -7.8656    9.6851   -1.6827 C   0  0  0  0  0  0  0  0  0  0  0  0
   -6.4353    9.8887   -2.2133 C   0  0  0  0  0  0  0  0  0  0  0  0
   -6.4891   10.6072   -3.5741 C   0  0  0  0  0  0  0  0  0  0  0  0
   -5.6321   10.7425   -1.2134 C   0  0  0  0  0  0  0  0  0  0  0  0
   -5.0581   10.8110   -4.1052 C   0  0  0  0  0  0  0  0  0  0  0  0
   -3.1015    6.9175   -0.6145 H   0  0  0  0  0  0  0  0  0  0  0  0
   -0.5820    7.9150    0.1740 H   0  0  0  0  0  0  0  0  0  0  0  0
   -4.8971    6.1436    0.6819 H   0  0  0  0  0  0  0  0  0  0  0  0
   -2.3150    6.4679    0.9170 H   0  0  0  0  0  0  0  0  0  0  0  0
   -4.2411    8.8147    0.5310 H   0  0  0  0  0  0  0  0  0  0  0  0
   -3.4545    8.3593    2.0610 H   0  0  0  0  0  0  0  0  0  0  0  0
   -7.0226    5.6830    1.7909 H   0  0  0  0  0  0  0  0  0  0  0  0
   -4.8671    6.5817    2.4059 H   0  0  0  0  0  0  0  0  0  0  0  0
   -5.6526    8.8849   -0.4072 H   0  0  0  0  0  0  0  0  0  0  0  0
   -6.4069    8.4816    1.9515 H   0  0  0  0  0  0  0  0  0  0  0  0
   -8.0698    6.5234    0.6211 H   0  0  0  0  0  0  0  0  0  0  0  0
   -8.0831    7.0059    2.3347 H   0  0  0  0  0  0  0  0  0  0  0  0
   -8.6405    8.2611   -0.2502 H   0  0  0  0  0  0  0  0  0  0  0  0
   -6.4628    7.3791   -0.9002 H   0  0  0  0  0  0  0  0  0  0  0  0
   -8.4340    9.0814   -2.3898 H   0  0  0  0  0  0  0  0  0  0  0  0
   -7.8917    9.7007    0.4799 H   0  0  0  0  0  0  0  0  0  0  0  0
   -6.2382   10.9303   -0.3276 H   0  0  0  0  0  0  0  0  0  0  0  0
   -8.3499   10.6545   -1.5622 H   0  0  0  0  0  0  0  0  0  0  0  0
   -7.0575   10.0033   -4.2820 H   0  0  0  0  0  0  0  0  0  0  0  0
   -5.9506    8.9196   -2.3335 H   0  0  0  0  0  0  0  0  0  0  0  0
   -4.4924   11.4210   -3.4003 H   0  0  0  0  0  0  0  0  0  0  0  0
   -6.9732   11.5762   -3.4539 H   0  0  0  0  0  0  0  0  0  0  0  0
   -5.3630   11.6903   -1.6785 H   0  0  0  0  0  0  0  0  0  0  0  0
   -4.7258   10.2078   -0.9271 H   0  0  0  0  0  0  0  0  0  0  0  0
   -5.0970   11.3143   -5.0712 H   0  0  0  0  0  0  0  0  0  0  0  0
   -4.5719    9.8428   -4.2191 H   0  0  0  0  0  0  0  0  0  0  0  0
   -2.3410   10.2460    0.7170 H   0  0  0  0  0  0  0  0  0  0  0  0
   -2.1860    9.0690    2.0130 H   0  0  0  0  0  0  0  0  0  0  0  0
   -0.7190    9.8570    1.3180 H   0  0  0  0  0  0  0  0  0  0  0  0
   -2.3460    8.0200   -1.9300 H   0  0  0  0  0  0  0  0  0  0  0  0
   -2.0940    9.7190   -1.5390 H   0  0  0  0  0  0  0  0  0  0  0  0
   -0.7040    8.6980   -1.8730 H   0  0  0  0  0  0  0  0  0  0  0  0
  1 42  1  0  0  0  0
  1 43  1  0  0  0  0
  1 44  1  0  0  0  0
  1  3  1  0  0  0  0
  2 45  1  0  0  0  0
  2 46  1  0  0  0  0
  2 47  1  0  0  0  0
  2  3  1  0  0  0  0
  3  4  1  0  0  0  0
  3 17  1  0  0  0  0
  4  5  1  0  0  0  0
  4 16  1  0  0  0  0
  4 19  1  0  0  0  0
  5  6  1  0  0  0  0
  5 20  1  0  0  0  0
  5 21  1  0  0  0  0
  6  7  1  0  0  0  0
  6 18  1  0  0  0  0
  6 23  1  0  0  0  0
  7  8  1  0  0  0  0
  7  9  1  0  0  0  0
  7 25  1  0  0  0  0
  8 22  1  0  0  0  0
  8 26  1  0  0  0  0
  8 27  1  0  0  0  0
  9 10  1  0  0  0  0
  9 24  1  0  0  0  0
  9 29  1  0  0  0  0
 10 11  1  0  0  0  0
 10 28  1  0  0  0  0
 10 31  1  0  0  0  0
 11 12  1  0  0  0  0
 11 30  1  0  0  0  0
 11 33  1  0  0  0  0
 12 13  1  0  0  0  0
 12 14  1  0  0  0  0
 12 35  1  0  0  0  0
 13 15  1  0  0  0  0
 13 34  1  0  0  0  0
 13 37  1  0  0  0  0
 14 32  1  0  0  0  0
 14 38  1  0  0  0  0
 14 39  1  0  0  0  0
 15 36  1  0  0  0  0
 15 40  1  0  0  0  0
 15 41  1  0  0  0  0
M  END
$$$$
farnesyl_sat.pdb_49
 OpenBabel07241819373D
VDW energy = 92.21
 47 46  0  0  0  0  0  0  0  0999 V2000
   -1.7100    9.4390    1.0900 C   0  0  0  0  0  0  0  0  0  0  0  0
   -1.6880    8.7310   -1.4210 C   0  0  0  0  0  0  0  0  0  0  0  0
   -1.5890    8.3130    0.0530 C   0  0  0  0  0  0  0  0  0  0  0  0
   -2.7120    7.2970    0.3300 C   0  0  0  0  0  0  0  0  0  0  0  0
   -2.2234    5.8804   -0.0250 C   0  0  0  0  0  0  0  0  0  0  0  0
   -3.3469    4.8646    0.2523 C   0  0  0  0  0  0  0  0  0  0  0  0
   -2.7416    3.5792    0.8465 C   0  0  0  0  0  0  0  0  0  0  0  0
   -1.2519    3.4879    0.4670 C   0  0  0  0  0  0  0  0  0  0  0  0
   -3.4902    2.3535    0.2898 C   0  0  0  0  0  0  0  0  0  0  0  0
   -2.9368    1.0730    0.9421 C   0  0  0  0  0  0  0  0  0  0  0  0
   -3.8141   -0.1287    0.5433 C   0  0  0  0  0  0  0  0  0  0  0  0
   -4.5731    0.1973   -0.7554 C   0  0  0  0  0  0  0  0  0  0  0  0
   -5.0665   -1.1090   -1.4043 C   0  0  0  0  0  0  0  0  0  0  0  0
   -5.7807    1.0984   -0.4333 C   0  0  0  0  0  0  0  0  0  0  0  0
   -5.8260   -0.7831   -2.7037 C   0  0  0  0  0  0  0  0  0  0  0  0
   -2.9855    7.3343    1.3844 H   0  0  0  0  0  0  0  0  0  0  0  0
   -0.5820    7.9150    0.1740 H   0  0  0  0  0  0  0  0  0  0  0  0
   -4.0579    5.2915    0.9589 H   0  0  0  0  0  0  0  0  0  0  0  0
   -3.5829    7.5433   -0.2787 H   0  0  0  0  0  0  0  0  0  0  0  0
   -1.3510    5.6336    0.5804 H   0  0  0  0  0  0  0  0  0  0  0  0
   -1.9538    5.8440   -1.0807 H   0  0  0  0  0  0  0  0  0  0  0  0
   -0.9672    4.3737   -0.1023 H   0  0  0  0  0  0  0  0  0  0  0  0
   -3.8595    4.6268   -0.6794 H   0  0  0  0  0  0  0  0  0  0  0  0
   -4.5532    2.4437    0.5111 H   0  0  0  0  0  0  0  0  0  0  0  0
   -2.8385    3.6002    1.9316 H   0  0  0  0  0  0  0  0  0  0  0  0
   -1.0847    2.5972   -0.1390 H   0  0  0  0  0  0  0  0  0  0  0  0
   -0.6492    3.4293    1.3734 H   0  0  0  0  0  0  0  0  0  0  0  0
   -1.9143    0.9045    0.6033 H   0  0  0  0  0  0  0  0  0  0  0  0
   -3.3471    2.3010   -0.7895 H   0  0  0  0  0  0  0  0  0  0  0  0
   -3.1827   -1.0029    0.3865 H   0  0  0  0  0  0  0  0  0  0  0  0
   -2.9455    1.1844    2.0262 H   0  0  0  0  0  0  0  0  0  0  0  0
   -5.7652    1.3619    0.6238 H   0  0  0  0  0  0  0  0  0  0  0  0
   -4.5292   -0.3360    1.3398 H   0  0  0  0  0  0  0  0  0  0  0  0
   -4.2122   -1.7470   -1.6323 H   0  0  0  0  0  0  0  0  0  0  0  0
   -3.9074    0.7163   -1.4452 H   0  0  0  0  0  0  0  0  0  0  0  0
   -6.6843   -0.1509   -2.4740 H   0  0  0  0  0  0  0  0  0  0  0  0
   -5.7325   -1.6277   -0.7148 H   0  0  0  0  0  0  0  0  0  0  0  0
   -6.7032    0.5662   -0.6628 H   0  0  0  0  0  0  0  0  0  0  0  0
   -5.7255    2.0063   -1.0350 H   0  0  0  0  0  0  0  0  0  0  0  0
   -6.1699   -1.7084   -3.1657 H   0  0  0  0  0  0  0  0  0  0  0  0
   -5.1623   -0.2587   -3.3902 H   0  0  0  0  0  0  0  0  0  0  0  0
   -2.3410   10.2460    0.7170 H   0  0  0  0  0  0  0  0  0  0  0  0
   -2.1860    9.0690    2.0130 H   0  0  0  0  0  0  0  0  0  0  0  0
   -0.7190    9.8570    1.3180 H   0  0  0  0  0  0  0  0  0  0  0  0
   -2.3460    8.0200   -1.9300 H   0  0  0  0  0  0  0  0  0  0  0  0
   -2.0940    9.7190   -1.5390 H   0  0  0  0  0  0  0  0  0  0  0  0
   -0.7040    8.6980   -1.8730 H   0  0  0  0  0  0  0  0  0  0  0  0
  1 42  1  0  0  0  0
  1 43  1  0  0  0  0
  1 44  1  0  0  0  0
  1  3  1  0  0  0  0
  2 45  1  0  0  0  0
  2 46  1  0  0  0  0
  2 47  1  0  0  0  0
  2  3  1  0  0  0  0
  3  4  1  0  0  0  0
  3 17  1  0  0  0  0
  4  5  1  0  0  0  0
  4 16  1  0  0  0  0
  4 19  1  0  0  0  0
  5  6  1  0  0  0  0
  5 20  1  0  0  0  0
  5 21  1  0  0  0  0
  6  7  1  0  0  0  0
  6 18  1  0  0  0  0
  6 23  1  0  0  0  0
  7  8  1  0  0  0  0
  7  9  1  0  0  0  0
  7 25  1  0  0  0  0
  8 22  1  0  0  0  0
  8 26  1  0  0  0  0
  8 27  1  0  0  0  0
  9 10  1  0  0  0  0
  9 24  1  0  0  0  0
  9 29  1  0  0  0  0
 10 11  1  0  0  0  0
 10 28  1  0  0  0  0
 10 31  1  0  0  0  0
 11 12  1  0  0  0  0
 11 30  1  0  0  0  0
 11 33  1  0  0  0  0
 12 13  1  0  0  0  0
 12 14  1  0  0  0  0
 12 35  1  0  0  0  0
 13 15  1  0  0  0  0
 13 34  1  0  0  0  0
 13 37  1  0  0  0  0
 14 32  1  0  0  0  0
 14 38  1  0  0  0  0
 14 39  1  0  0  0  0
 15 36  1  0  0  0  0
 15 40  1  0  0  0  0
 15 41  1  0  0  0  0
M  END
$$$$
farnesyl_sat.pdb_50
 OpenBabel07241819373D
VDW energy = 93.06
 47 46  0  0  0  0  0  0  0  0999 V2000
   -1.7100    9.4390    1.0900 C   0  0  0  0  0  0  0  0  0  0  0  0
   -1.6880    8.7310   -1.4210 C   0  0  0  0  0  0  0  0  0  0  0  0
   -1.5890    8.3130    0.0530 C   0  0  0  0  0  0  0  0  0  0  0  0
   -2.7120    7.2970    0.3300 C   0  0  0  0  0  0  0  0  0  0  0  0
   -2.2234    5.8804   -0.0250 C   0  0  0  0  0  0  0  0  0  0  0  0
   -1.0539    5.9748   -1.0221 C   0  0  0  0  0  0  0  0  0  0  0  0
   -1.1767    4.8485   -2.0653 C   0  0  0  0  0  0  0  0  0  0  0  0
   -0.0077    4.9412   -3.0636 C   0  0  0  0  0  0  0  0  0  0  0  0
   -2.5112    4.9912   -2.8211 C   0  0  0  0  0  0  0  0  0  0  0  0
   -2.6696    3.8215   -3.8102 C   0  0  0  0  0  0  0  0  0  0  0  0
   -4.0851    3.8486   -4.4173 C   0  0  0  0  0  0  0  0  0  0  0  0
   -5.0295    4.6288   -3.4856 C   0  0  0  0  0  0  0  0  0  0  0  0
   -6.2831    5.0607   -4.2684 C   0  0  0  0  0  0  0  0  0  0  0  0
   -5.4457    3.7304   -2.3051 C   0  0  0  0  0  0  0  0  0  0  0  0
   -7.2281    5.8413   -3.3363 C   0  0  0  0  0  0  0  0  0  0  0  0
   -2.9855    7.3343    1.3844 H   0  0  0  0  0  0  0  0  0  0  0  0
   -0.5820    7.9150    0.1740 H   0  0  0  0  0  0  0  0  0  0  0  0
   -1.0814    6.9407   -1.5255 H   0  0  0  0  0  0  0  0  0  0  0  0
   -3.5829    7.5433   -0.2787 H   0  0  0  0  0  0  0  0  0  0  0  0
   -3.0405    5.3150   -0.4735 H   0  0  0  0  0  0  0  0  0  0  0  0
   -1.8878    5.3752    0.8810 H   0  0  0  0  0  0  0  0  0  0  0  0
    0.6522    5.7603   -2.7750 H   0  0  0  0  0  0  0  0  0  0  0  0
   -0.1107    5.8714   -0.4864 H   0  0  0  0  0  0  0  0  0  0  0  0
   -3.3364    4.9798   -2.1098 H   0  0  0  0  0  0  0  0  0  0  0  0
   -1.1475    3.8825   -1.5619 H   0  0  0  0  0  0  0  0  0  0  0  0
   -0.3981    5.1245   -4.0649 H   0  0  0  0  0  0  0  0  0  0  0  0
    0.5506    4.0051   -3.0568 H   0  0  0  0  0  0  0  0  0  0  0  0
   -1.9310    3.9156   -4.6066 H   0  0  0  0  0  0  0  0  0  0  0  0
   -2.5177    5.9330   -3.3700 H   0  0  0  0  0  0  0  0  0  0  0  0
   -4.0525    4.3340   -5.3924 H   0  0  0  0  0  0  0  0  0  0  0  0
   -2.5182    2.8786   -3.2852 H   0  0  0  0  0  0  0  0  0  0  0  0
   -4.9082    2.7842   -2.3619 H   0  0  0  0  0  0  0  0  0  0  0  0
   -4.4500    2.8276   -4.5324 H   0  0  0  0  0  0  0  0  0  0  0  0
   -5.9889    5.6964   -5.1039 H   0  0  0  0  0  0  0  0  0  0  0  0
   -4.5168    5.5125   -3.1051 H   0  0  0  0  0  0  0  0  0  0  0  0
   -7.5276    5.2026   -2.5048 H   0  0  0  0  0  0  0  0  0  0  0  0
   -6.7959    4.1771   -4.6483 H   0  0  0  0  0  0  0  0  0  0  0  0
   -6.5181    3.5437   -2.3506 H   0  0  0  0  0  0  0  0  0  0  0  0
   -5.2033    4.2303   -1.3667 H   0  0  0  0  0  0  0  0  0  0  0  0
   -8.1126    6.1519   -3.8924 H   0  0  0  0  0  0  0  0  0  0  0  0
   -6.7134    6.7208   -2.9513 H   0  0  0  0  0  0  0  0  0  0  0  0
   -2.3410   10.2460    0.7170 H   0  0  0  0  0  0  0  0  0  0  0  0
   -2.1860    9.0690    2.0130 H   0  0  0  0  0  0  0  0  0  0  0  0
   -0.7190    9.8570    1.3180 H   0  0  0  0  0  0  0  0  0  0  0  0
   -2.3460    8.0200   -1.9300 H   0  0  0  0  0  0  0  0  0  0  0  0
   -2.0940    9.7190   -1.5390 H   0  0  0  0  0  0  0  0  0  0  0  0
   -0.7040    8.6980   -1.8730 H   0  0  0  0  0  0  0  0  0  0  0  0
  1 42  1  0  0  0  0
  1 43  1  0  0  0  0
  1 44  1  0  0  0  0
  1  3  1  0  0  0  0
  2 45  1  0  0  0  0
  2 46  1  0  0  0  0
  2 47  1  0  0  0  0
  2  3  1  0  0  0  0
  3  4  1  0  0  0  0
  3 17  1  0  0  0  0
  4  5  1  0  0  0  0
  4 16  1  0  0  0  0
  4 19  1  0  0  0  0
  5  6  1  0  0  0  0
  5 20  1  0  0  0  0
  5 21  1  0  0  0  0
  6  7  1  0  0  0  0
  6 18  1  0  0  0  0
  6 23  1  0  0  0  0
  7  8  1  0  0  0  0
  7  9  1  0  0  0  0
  7 25  1  0  0  0  0
  8 22  1  0  0  0  0
  8 26  1  0  0  0  0
  8 27  1  0  0  0  0
  9 10  1  0  0  0  0
  9 24  1  0  0  0  0
  9 29  1  0  0  0  0
 10 11  1  0  0  0  0
 10 28  1  0  0  0  0
 10 31  1  0  0  0  0
 11 12  1  0  0  0  0
 11 30  1  0  0  0  0
 11 33  1  0  0  0  0
 12 13  1  0  0  0  0
 12 14  1  0  0  0  0
 12 35  1  0  0  0  0
 13 15  1  0  0  0  0
 13 34  1  0  0  0  0
 13 37  1  0  0  0  0
 14 32  1  0  0  0  0
 14 38  1  0  0  0  0
 14 39  1  0  0  0  0
 15 36  1  0  0  0  0
 15 40  1  0  0  0  0
 15 41  1  0  0  0  0
M  END
$$$$
